Loading module dependency 'compiler/gnu/4.7'.
mv: target `oldjobslogs/' is not a directory
/*---------------------------------------------------------------------------*\
| =========                 |                                                 |
| \\      /  F ield         | OpenFOAM: The Open Source CFD Toolbox           |
|  \\    /   O peration     | Version:  2.2.x                                 |
|   \\  /    A nd           | Web:      www.OpenFOAM.org                      |
|    \\/     M anipulation  |                                                 |
\*---------------------------------------------------------------------------*/
Build  : 2.2.x-61b850bc107b
Exec   : decomposePar -force
Date   : Jan 16 2015
Time   : 04:29:13
Host   : "uc1n497"
PID    : 88608
Case   : /pfs/work2/workspace/scratch/st_lrt70667-test-0/workdir
nProcs : 1
sigFpe : Enabling floating point exception trapping (FOAM_SIGFPE).
fileModificationChecking : Monitoring run-time modified files using timeStampMaster
allowSystemOperations : Disallowing user-supplied system call operations

// * * * * * * * * * * * * * * * * * * * * * * * * * * * * * * * * * * * * * //
Create time



Decomposing mesh region0

Removing 8 existing processor directories
Create mesh

Calculating distribution of cells
Selecting decompositionMethod scotch

Finished decomposition in 5.93 s

Calculating original mesh data

Distributing cells to processors

Distributing faces to processors

Distributing points to processors

Constructing processor meshes

Processor 0
    Number of cells = 256639
    Number of faces shared with processor 1 = 11255
    Number of faces shared with processor 1 = 39
    Number of faces shared with processor 2 = 4369
    Number of faces shared with processor 6 = 8754
    Number of processor patches = 4
    Number of processor faces = 24417
    Number of boundary faces = 17053

Processor 1
    Number of cells = 251773
    Number of faces shared with processor 0 = 11255
    Number of faces shared with processor 0 = 39
    Number of faces shared with processor 2 = 3292
    Number of faces shared with processor 6 = 2407
    Number of processor patches = 4
    Number of processor faces = 16993
    Number of boundary faces = 12881

Processor 2
    Number of cells = 251663
    Number of faces shared with processor 0 = 4369
    Number of faces shared with processor 1 = 3292
    Number of faces shared with processor 3 = 8625
    Number of faces shared with processor 6 = 4103
    Number of faces shared with processor 7 = 7122
    Number of processor patches = 5
    Number of processor faces = 27511
    Number of boundary faces = 6781

Processor 3
    Number of cells = 254910
    Number of faces shared with processor 2 = 8625
    Number of faces shared with processor 6 = 288
    Number of faces shared with processor 7 = 5928
    Number of processor patches = 3
    Number of processor faces = 14841
    Number of boundary faces = 10859

Processor 4
    Number of cells = 256868
    Number of faces shared with processor 5 = 10127
    Number of faces shared with processor 6 = 6715
    Number of processor patches = 2
    Number of processor faces = 16842
    Number of boundary faces = 14890

Processor 5
    Number of cells = 253111
    Number of faces shared with processor 4 = 10127
    Number of faces shared with processor 6 = 6661
    Number of processor patches = 2
    Number of processor faces = 16788
    Number of boundary faces = 16172

Processor 6
    Number of cells = 255691
    Number of faces shared with processor 0 = 8754
    Number of faces shared with processor 1 = 2407
    Number of faces shared with processor 2 = 4103
    Number of faces shared with processor 3 = 288
    Number of faces shared with processor 4 = 6715
    Number of faces shared with processor 5 = 6661
    Number of faces shared with processor 7 = 8855
    Number of processor patches = 7
    Number of processor faces = 37783
    Number of boundary faces = 9267

Processor 7
    Number of cells = 252697
    Number of faces shared with processor 2 = 7122
    Number of faces shared with processor 3 = 5928
    Number of faces shared with processor 6 = 8855
    Number of processor patches = 3
    Number of processor faces = 21905
    Number of boundary faces = 4427

Number of processor faces = 88540
Max number of cells = 256868 (1.06189189083% above average 254169)
Max number of processor patches = 7 (86.6666666667% above average 3.75)
Max number of faces between processors = 37783 (70.6934718771% above average 22135)

Time = 0

Processor 0: field transfer
Processor 1: field transfer
Processor 2: field transfer
Processor 3: field transfer
Processor 4: field transfer
Processor 5: field transfer
Processor 6: field transfer
Processor 7: field transfer

End.

`processor1' -> `/scratch/workdir/processor1'
`processor1/0' -> `/scratch/workdir/processor1/0'
`processor1/0/U.gz' -> `/scratch/workdir/processor1/0/U.gz'
`processor1/0/p.gz' -> `/scratch/workdir/processor1/0/p.gz'
`processor1/constant' -> `/scratch/workdir/processor1/constant'
`processor1/constant/polyMesh' -> `/scratch/workdir/processor1/constant/polyMesh'
`processor1/constant/polyMesh/pointProcAddressing.gz' -> `/scratch/workdir/processor1/constant/polyMesh/pointProcAddressing.gz'
`processor1/constant/polyMesh/faceProcAddressing.gz' -> `/scratch/workdir/processor1/constant/polyMesh/faceProcAddressing.gz'
`processor1/constant/polyMesh/neighbour.gz' -> `/scratch/workdir/processor1/constant/polyMesh/neighbour.gz'
`processor1/constant/polyMesh/boundaryProcAddressing.gz' -> `/scratch/workdir/processor1/constant/polyMesh/boundaryProcAddressing.gz'
`processor1/constant/polyMesh/owner.gz' -> `/scratch/workdir/processor1/constant/polyMesh/owner.gz'
`processor1/constant/polyMesh/points.gz' -> `/scratch/workdir/processor1/constant/polyMesh/points.gz'
`processor1/constant/polyMesh/faces.gz' -> `/scratch/workdir/processor1/constant/polyMesh/faces.gz'
`processor1/constant/polyMesh/cellProcAddressing.gz' -> `/scratch/workdir/processor1/constant/polyMesh/cellProcAddressing.gz'
`processor1/constant/polyMesh/boundary' -> `/scratch/workdir/processor1/constant/polyMesh/boundary'
removed `processor1/0/U.gz'
removed `processor1/0/p.gz'
removed directory: `processor1/0'
removed `processor1/constant/polyMesh/pointProcAddressing.gz'
removed `processor1/constant/polyMesh/faceProcAddressing.gz'
removed `processor1/constant/polyMesh/neighbour.gz'
removed `processor1/constant/polyMesh/boundaryProcAddressing.gz'
removed `processor1/constant/polyMesh/owner.gz'
removed `processor1/constant/polyMesh/points.gz'
removed `processor1/constant/polyMesh/faces.gz'
removed `processor1/constant/polyMesh/cellProcAddressing.gz'
removed `processor1/constant/polyMesh/boundary'
removed directory: `processor1/constant/polyMesh'
removed directory: `processor1/constant'
removed directory: `processor1'
`processor2' -> `/scratch/workdir/processor2'
`processor2/0' -> `/scratch/workdir/processor2/0'
`processor2/0/U.gz' -> `/scratch/workdir/processor2/0/U.gz'
`processor2/0/p.gz' -> `/scratch/workdir/processor2/0/p.gz'
`processor2/constant' -> `/scratch/workdir/processor2/constant'
`processor2/constant/polyMesh' -> `/scratch/workdir/processor2/constant/polyMesh'
`processor2/constant/polyMesh/pointProcAddressing.gz' -> `/scratch/workdir/processor2/constant/polyMesh/pointProcAddressing.gz'
`processor2/constant/polyMesh/faceProcAddressing.gz' -> `/scratch/workdir/processor2/constant/polyMesh/faceProcAddressing.gz'
`processor2/constant/polyMesh/neighbour.gz' -> `/scratch/workdir/processor2/constant/polyMesh/neighbour.gz'
`processor2/constant/polyMesh/boundaryProcAddressing.gz' -> `/scratch/workdir/processor2/constant/polyMesh/boundaryProcAddressing.gz'
`processor2/constant/polyMesh/owner.gz' -> `/scratch/workdir/processor2/constant/polyMesh/owner.gz'
`processor2/constant/polyMesh/points.gz' -> `/scratch/workdir/processor2/constant/polyMesh/points.gz'
`processor2/constant/polyMesh/faces.gz' -> `/scratch/workdir/processor2/constant/polyMesh/faces.gz'
`processor2/constant/polyMesh/cellProcAddressing.gz' -> `/scratch/workdir/processor2/constant/polyMesh/cellProcAddressing.gz'
`processor2/constant/polyMesh/boundary' -> `/scratch/workdir/processor2/constant/polyMesh/boundary'
removed `processor2/0/U.gz'
removed `processor2/0/p.gz'
removed directory: `processor2/0'
removed `processor2/constant/polyMesh/pointProcAddressing.gz'
removed `processor2/constant/polyMesh/faceProcAddressing.gz'
removed `processor2/constant/polyMesh/neighbour.gz'
removed `processor2/constant/polyMesh/boundaryProcAddressing.gz'
removed `processor2/constant/polyMesh/owner.gz'
removed `processor2/constant/polyMesh/points.gz'
removed `processor2/constant/polyMesh/faces.gz'
removed `processor2/constant/polyMesh/cellProcAddressing.gz'
removed `processor2/constant/polyMesh/boundary'
removed directory: `processor2/constant/polyMesh'
removed directory: `processor2/constant'
removed directory: `processor2'
`processor3' -> `/scratch/workdir/processor3'
`processor3/0' -> `/scratch/workdir/processor3/0'
`processor3/0/U.gz' -> `/scratch/workdir/processor3/0/U.gz'
`processor3/0/p.gz' -> `/scratch/workdir/processor3/0/p.gz'
`processor3/constant' -> `/scratch/workdir/processor3/constant'
`processor3/constant/polyMesh' -> `/scratch/workdir/processor3/constant/polyMesh'
`processor3/constant/polyMesh/pointProcAddressing.gz' -> `/scratch/workdir/processor3/constant/polyMesh/pointProcAddressing.gz'
`processor3/constant/polyMesh/faceProcAddressing.gz' -> `/scratch/workdir/processor3/constant/polyMesh/faceProcAddressing.gz'
`processor3/constant/polyMesh/neighbour.gz' -> `/scratch/workdir/processor3/constant/polyMesh/neighbour.gz'
`processor3/constant/polyMesh/boundaryProcAddressing.gz' -> `/scratch/workdir/processor3/constant/polyMesh/boundaryProcAddressing.gz'
`processor3/constant/polyMesh/owner.gz' -> `/scratch/workdir/processor3/constant/polyMesh/owner.gz'
`processor3/constant/polyMesh/points.gz' -> `/scratch/workdir/processor3/constant/polyMesh/points.gz'
`processor3/constant/polyMesh/faces.gz' -> `/scratch/workdir/processor3/constant/polyMesh/faces.gz'
`processor3/constant/polyMesh/cellProcAddressing.gz' -> `/scratch/workdir/processor3/constant/polyMesh/cellProcAddressing.gz'
`processor3/constant/polyMesh/boundary' -> `/scratch/workdir/processor3/constant/polyMesh/boundary'
removed `processor3/0/U.gz'
removed `processor3/0/p.gz'
removed directory: `processor3/0'
removed `processor3/constant/polyMesh/pointProcAddressing.gz'
removed `processor3/constant/polyMesh/faceProcAddressing.gz'
removed `processor3/constant/polyMesh/neighbour.gz'
removed `processor3/constant/polyMesh/boundaryProcAddressing.gz'
removed `processor3/constant/polyMesh/owner.gz'
removed `processor3/constant/polyMesh/points.gz'
removed `processor3/constant/polyMesh/faces.gz'
removed `processor3/constant/polyMesh/cellProcAddressing.gz'
removed `processor3/constant/polyMesh/boundary'
removed directory: `processor3/constant/polyMesh'
removed directory: `processor3/constant'
removed directory: `processor3'
`processor4' -> `/scratch/workdir/processor4'
`processor4/0' -> `/scratch/workdir/processor4/0'
`processor4/0/U.gz' -> `/scratch/workdir/processor4/0/U.gz'
`processor4/0/p.gz' -> `/scratch/workdir/processor4/0/p.gz'
`processor4/constant' -> `/scratch/workdir/processor4/constant'
`processor4/constant/polyMesh' -> `/scratch/workdir/processor4/constant/polyMesh'
`processor4/constant/polyMesh/pointProcAddressing.gz' -> `/scratch/workdir/processor4/constant/polyMesh/pointProcAddressing.gz'
`processor4/constant/polyMesh/faceProcAddressing.gz' -> `/scratch/workdir/processor4/constant/polyMesh/faceProcAddressing.gz'
`processor4/constant/polyMesh/neighbour.gz' -> `/scratch/workdir/processor4/constant/polyMesh/neighbour.gz'
`processor4/constant/polyMesh/boundaryProcAddressing.gz' -> `/scratch/workdir/processor4/constant/polyMesh/boundaryProcAddressing.gz'
`processor4/constant/polyMesh/owner.gz' -> `/scratch/workdir/processor4/constant/polyMesh/owner.gz'
`processor4/constant/polyMesh/points.gz' -> `/scratch/workdir/processor4/constant/polyMesh/points.gz'
`processor4/constant/polyMesh/faces.gz' -> `/scratch/workdir/processor4/constant/polyMesh/faces.gz'
`processor4/constant/polyMesh/cellProcAddressing.gz' -> `/scratch/workdir/processor4/constant/polyMesh/cellProcAddressing.gz'
`processor4/constant/polyMesh/boundary' -> `/scratch/workdir/processor4/constant/polyMesh/boundary'
removed `processor4/0/U.gz'
removed `processor4/0/p.gz'
removed directory: `processor4/0'
removed `processor4/constant/polyMesh/pointProcAddressing.gz'
removed `processor4/constant/polyMesh/faceProcAddressing.gz'
removed `processor4/constant/polyMesh/neighbour.gz'
removed `processor4/constant/polyMesh/boundaryProcAddressing.gz'
removed `processor4/constant/polyMesh/owner.gz'
removed `processor4/constant/polyMesh/points.gz'
removed `processor4/constant/polyMesh/faces.gz'
removed `processor4/constant/polyMesh/cellProcAddressing.gz'
removed `processor4/constant/polyMesh/boundary'
removed directory: `processor4/constant/polyMesh'
removed directory: `processor4/constant'
removed directory: `processor4'
`processor5' -> `/scratch/workdir/processor5'
`processor5/0' -> `/scratch/workdir/processor5/0'
`processor5/0/U.gz' -> `/scratch/workdir/processor5/0/U.gz'
`processor5/0/p.gz' -> `/scratch/workdir/processor5/0/p.gz'
`processor5/constant' -> `/scratch/workdir/processor5/constant'
`processor5/constant/polyMesh' -> `/scratch/workdir/processor5/constant/polyMesh'
`processor5/constant/polyMesh/pointProcAddressing.gz' -> `/scratch/workdir/processor5/constant/polyMesh/pointProcAddressing.gz'
`processor5/constant/polyMesh/faceProcAddressing.gz' -> `/scratch/workdir/processor5/constant/polyMesh/faceProcAddressing.gz'
`processor5/constant/polyMesh/neighbour.gz' -> `/scratch/workdir/processor5/constant/polyMesh/neighbour.gz'
`processor5/constant/polyMesh/boundaryProcAddressing.gz' -> `/scratch/workdir/processor5/constant/polyMesh/boundaryProcAddressing.gz'
`processor5/constant/polyMesh/owner.gz' -> `/scratch/workdir/processor5/constant/polyMesh/owner.gz'
`processor5/constant/polyMesh/points.gz' -> `/scratch/workdir/processor5/constant/polyMesh/points.gz'
`processor5/constant/polyMesh/faces.gz' -> `/scratch/workdir/processor5/constant/polyMesh/faces.gz'
`processor5/constant/polyMesh/cellProcAddressing.gz' -> `/scratch/workdir/processor5/constant/polyMesh/cellProcAddressing.gz'
`processor5/constant/polyMesh/boundary' -> `/scratch/workdir/processor5/constant/polyMesh/boundary'
removed `processor5/0/U.gz'
removed `processor5/0/p.gz'
removed directory: `processor5/0'
removed `processor5/constant/polyMesh/pointProcAddressing.gz'
removed `processor5/constant/polyMesh/faceProcAddressing.gz'
removed `processor5/constant/polyMesh/neighbour.gz'
removed `processor5/constant/polyMesh/boundaryProcAddressing.gz'
removed `processor5/constant/polyMesh/owner.gz'
removed `processor5/constant/polyMesh/points.gz'
removed `processor5/constant/polyMesh/faces.gz'
removed `processor5/constant/polyMesh/cellProcAddressing.gz'
removed `processor5/constant/polyMesh/boundary'
removed directory: `processor5/constant/polyMesh'
removed directory: `processor5/constant'
removed directory: `processor5'
`processor6' -> `/scratch/workdir/processor6'
`processor6/0' -> `/scratch/workdir/processor6/0'
`processor6/0/U.gz' -> `/scratch/workdir/processor6/0/U.gz'
`processor6/0/p.gz' -> `/scratch/workdir/processor6/0/p.gz'
`processor6/constant' -> `/scratch/workdir/processor6/constant'
`processor6/constant/polyMesh' -> `/scratch/workdir/processor6/constant/polyMesh'
`processor6/constant/polyMesh/pointProcAddressing.gz' -> `/scratch/workdir/processor6/constant/polyMesh/pointProcAddressing.gz'
`processor6/constant/polyMesh/faceProcAddressing.gz' -> `/scratch/workdir/processor6/constant/polyMesh/faceProcAddressing.gz'
`processor6/constant/polyMesh/neighbour.gz' -> `/scratch/workdir/processor6/constant/polyMesh/neighbour.gz'
`processor6/constant/polyMesh/boundaryProcAddressing.gz' -> `/scratch/workdir/processor6/constant/polyMesh/boundaryProcAddressing.gz'
`processor6/constant/polyMesh/owner.gz' -> `/scratch/workdir/processor6/constant/polyMesh/owner.gz'
`processor6/constant/polyMesh/points.gz' -> `/scratch/workdir/processor6/constant/polyMesh/points.gz'
`processor6/constant/polyMesh/faces.gz' -> `/scratch/workdir/processor6/constant/polyMesh/faces.gz'
`processor6/constant/polyMesh/cellProcAddressing.gz' -> `/scratch/workdir/processor6/constant/polyMesh/cellProcAddressing.gz'
`processor6/constant/polyMesh/boundary' -> `/scratch/workdir/processor6/constant/polyMesh/boundary'
removed `processor6/0/U.gz'
removed `processor6/0/p.gz'
removed directory: `processor6/0'
removed `processor6/constant/polyMesh/pointProcAddressing.gz'
removed `processor6/constant/polyMesh/faceProcAddressing.gz'
removed `processor6/constant/polyMesh/neighbour.gz'
removed `processor6/constant/polyMesh/boundaryProcAddressing.gz'
removed `processor6/constant/polyMesh/owner.gz'
removed `processor6/constant/polyMesh/points.gz'
removed `processor6/constant/polyMesh/faces.gz'
removed `processor6/constant/polyMesh/cellProcAddressing.gz'
removed `processor6/constant/polyMesh/boundary'
removed directory: `processor6/constant/polyMesh'
removed directory: `processor6/constant'
removed directory: `processor6'
`processor7' -> `/scratch/workdir/processor7'
`processor7/0' -> `/scratch/workdir/processor7/0'
`processor7/0/U.gz' -> `/scratch/workdir/processor7/0/U.gz'
`processor7/0/p.gz' -> `/scratch/workdir/processor7/0/p.gz'
`processor7/constant' -> `/scratch/workdir/processor7/constant'
`processor7/constant/polyMesh' -> `/scratch/workdir/processor7/constant/polyMesh'
`processor7/constant/polyMesh/pointProcAddressing.gz' -> `/scratch/workdir/processor7/constant/polyMesh/pointProcAddressing.gz'
`processor7/constant/polyMesh/faceProcAddressing.gz' -> `/scratch/workdir/processor7/constant/polyMesh/faceProcAddressing.gz'
`processor7/constant/polyMesh/neighbour.gz' -> `/scratch/workdir/processor7/constant/polyMesh/neighbour.gz'
`processor7/constant/polyMesh/boundaryProcAddressing.gz' -> `/scratch/workdir/processor7/constant/polyMesh/boundaryProcAddressing.gz'
`processor7/constant/polyMesh/owner.gz' -> `/scratch/workdir/processor7/constant/polyMesh/owner.gz'
`processor7/constant/polyMesh/points.gz' -> `/scratch/workdir/processor7/constant/polyMesh/points.gz'
`processor7/constant/polyMesh/faces.gz' -> `/scratch/workdir/processor7/constant/polyMesh/faces.gz'
`processor7/constant/polyMesh/cellProcAddressing.gz' -> `/scratch/workdir/processor7/constant/polyMesh/cellProcAddressing.gz'
`processor7/constant/polyMesh/boundary' -> `/scratch/workdir/processor7/constant/polyMesh/boundary'
removed `processor7/0/U.gz'
removed `processor7/0/p.gz'
removed directory: `processor7/0'
removed `processor7/constant/polyMesh/pointProcAddressing.gz'
removed `processor7/constant/polyMesh/faceProcAddressing.gz'
removed `processor7/constant/polyMesh/neighbour.gz'
removed `processor7/constant/polyMesh/boundaryProcAddressing.gz'
removed `processor7/constant/polyMesh/owner.gz'
removed `processor7/constant/polyMesh/points.gz'
removed `processor7/constant/polyMesh/faces.gz'
removed `processor7/constant/polyMesh/cellProcAddressing.gz'
removed `processor7/constant/polyMesh/boundary'
removed directory: `processor7/constant/polyMesh'
removed directory: `processor7/constant'
removed directory: `processor7'
[uc1n497:88906] MCW rank 1 bound to socket 0[core 1]: [. B . . . . . .][. . . . . . . .]
[uc1n497:88906] MCW rank 2 bound to socket 0[core 2]: [. . B . . . . .][. . . . . . . .]
[uc1n497:88906] MCW rank 3 bound to socket 0[core 3]: [. . . B . . . .][. . . . . . . .]
[uc1n497:88906] MCW rank 4 bound to socket 0[core 4]: [. . . . B . . .][. . . . . . . .]
[uc1n497:88906] MCW rank 5 bound to socket 0[core 5]: [. . . . . B . .][. . . . . . . .]
[uc1n497:88906] MCW rank 6 bound to socket 0[core 6]: [. . . . . . B .][. . . . . . . .]
[uc1n497:88906] MCW rank 7 bound to socket 0[core 7]: [. . . . . . . B][. . . . . . . .]
[uc1n497:88906] MCW rank 0 bound to socket 0[core 0]: [B . . . . . . .][. . . . . . . .]
--------------------------------------------------------------------------
WARNING: It appears that your OpenFabrics subsystem is configured to only
allow registering part of your physical memory.  This can cause MPI jobs to
run with erratic performance, hang, and/or crash.

This may be caused by your OpenFabrics vendor limiting the amount of
physical memory that can be registered.  You should investigate the
relevant Linux kernel module parameters that control how much physical
memory can be registered, and increase them to allow registering all
physical memory on your machine.

See this Open MPI FAQ item for more information on these Linux kernel module
parameters:

    http://www.open-mpi.org/faq/?category=openfabrics#ib-locked-pages

  Local host:              uc1n497
  Registerable memory:     32768 MiB
  Total memory:            65486 MiB

Your MPI job will continue, but may be behave poorly and/or hang.
--------------------------------------------------------------------------
/*---------------------------------------------------------------------------*\
| =========                 |                                                 |
| \\      /  F ield         | OpenFOAM: The Open Source CFD Toolbox           |
|  \\    /   O peration     | Version:  2.2.x                                 |
|   \\  /    A nd           | Web:      www.OpenFOAM.org                      |
|    \\/     M anipulation  |                                                 |
\*---------------------------------------------------------------------------*/
Build  : 2.2.x-61b850bc107b
Exec   : icoFoam -parallel
Date   : Jan 16 2015
Time   : 04:29:55
Host   : "uc1n497"
PID    : 88907
Case   : /pfs/work2/workspace/scratch/st_lrt70667-test-0/workdir
nProcs : 8
Slaves : 
7
(
"uc1n497.88908"
"uc1n497.88909"
"uc1n497.88910"
"uc1n497.88911"
"uc1n497.88912"
"uc1n497.88913"
"uc1n497.88914"
)

Roots  : 
7
(
"/scratch"
"/scratch"
"/scratch"
"/scratch"
"/scratch"
"/scratch"
"/scratch"
)

Pstream initialized with:
    floatTransfer      : 0
    nProcsSimpleSum    : 0
    commsType          : nonBlocking
    polling iterations : 0
sigFpe : Enabling floating point exception trapping (FOAM_SIGFPE).
fileModificationChecking : Monitoring run-time modified files using timeStampMaster
allowSystemOperations : Disallowing user-supplied system call operations

// * * * * * * * * * * * * * * * * * * * * * * * * * * * * * * * * * * * * * //
Create time

Create mesh for time = 0

Reading transportProperties

Reading field p

Reading field U

Reading/calculating face flux field phi


Starting time loop

Time = 2.5e-05

Courant Number mean: 0.00626195212516 max: 1.0625457451
DILUPBiCG:  Solving for Ux, Initial residual = 3.30962932755e-07, Final residual = 3.30962932755e-07, No Iterations 0
DILUPBiCG:  Solving for Uy, Initial residual = 0, Final residual = 0, No Iterations 0
DILUPBiCG:  Solving for Uz, Initial residual = 0, Final residual = 0, No Iterations 0
[uc1n497:88906] 7 more processes have sent help message help-mpi-btl-openib.txt / reg mem limit low
[uc1n497:88906] Set MCA parameter "orte_base_help_aggregate" to 0 to see all help / error messages
DICPCG:  Solving for p, Initial residual = 1, Final residual = 9.83770757104e-07, No Iterations 580
time step continuity errors : sum local = 1.20835100692e-18, global = 7.27228931418e-21, cumulative = 7.27228931418e-21
DICPCG:  Solving for p, Initial residual = 0.408144571883, Final residual = 9.84673492893e-07, No Iterations 546
time step continuity errors : sum local = 2.04871893837e-18, global = 5.36164664355e-21, cumulative = 1.26339359577e-20
DICPCG:  Solving for p, Initial residual = 0.146534162892, Final residual = 9.78191971958e-07, No Iterations 495
time step continuity errors : sum local = 1.85639434464e-18, global = 1.36152605042e-20, cumulative = 2.62491964619e-20
DICPCG:  Solving for p, Initial residual = 0.0508829583082, Final residual = 9.79801424377e-07, No Iterations 301
time step continuity errors : sum local = 2.11538748425e-18, global = 1.9717288711e-21, cumulative = 2.8220925333e-20
DICPCG:  Solving for p, Initial residual = 0.0197489833433, Final residual = 9.96153080572e-07, No Iterations 290
time step continuity errors : sum local = 2.12992501356e-18, global = 7.17866076548e-21, cumulative = 3.53995860985e-20
DICPCG:  Solving for p, Initial residual = 0.00851977937669, Final residual = 9.81671211454e-07, No Iterations 272
time step continuity errors : sum local = 1.92628981066e-18, global = 1.37186353213e-21, cumulative = 3.67714496306e-20
DICPCG:  Solving for p, Initial residual = 0.00384550646952, Final residual = 9.91414353091e-07, No Iterations 264
time step continuity errors : sum local = 1.98298871485e-18, global = 7.78414006705e-21, cumulative = 4.45555896977e-20
DICPCG:  Solving for p, Initial residual = 0.00184666589323, Final residual = 9.99556063264e-07, No Iterations 258
time step continuity errors : sum local = 1.95726759257e-18, global = -4.84007864554e-21, cumulative = 3.97155110521e-20
DICPCG:  Solving for p, Initial residual = 0.000902663899631, Final residual = 9.82325254144e-07, No Iterations 183
time step continuity errors : sum local = 1.94598840729e-18, global = -1.07641604123e-20, cumulative = 2.89513506399e-20
DICPCG:  Solving for p, Initial residual = 0.000459026513155, Final residual = 9.96496496516e-07, No Iterations 149
time step continuity errors : sum local = 1.96244053591e-18, global = 1.39592305114e-21, cumulative = 3.0347273691e-20
DICPCG:  Solving for p, Initial residual = 0.000234386728567, Final residual = 9.95514624959e-07, No Iterations 131
time step continuity errors : sum local = 1.9645059125e-18, global = -6.62052557527e-21, cumulative = 2.37267481157e-20
DICPCG:  Solving for p, Initial residual = 0.000122918820164, Final residual = 9.7495600291e-07, No Iterations 121
time step continuity errors : sum local = 1.92877187904e-18, global = -2.31046281754e-21, cumulative = 2.14162852982e-20
DICPCG:  Solving for p, Initial residual = 6.47738398299e-05, Final residual = 9.77070722762e-07, No Iterations 115
time step continuity errors : sum local = 1.93106627036e-18, global = 4.27304887569e-21, cumulative = 2.56893341739e-20
DICPCG:  Solving for p, Initial residual = 3.49857471324e-05, Final residual = 9.7377859892e-07, No Iterations 54
time step continuity errors : sum local = 2.02080129216e-18, global = 5.21147306152e-21, cumulative = 3.09008072354e-20
DICPCG:  Solving for p, Initial residual = 1.90832370078e-05, Final residual = 9.96471165708e-07, No Iterations 34
time step continuity errors : sum local = 2.06643753257e-18, global = -2.89819411649e-21, cumulative = 2.80026131189e-20
DICPCG:  Solving for p, Initial residual = 1.07662163446e-05, Final residual = 8.94999667039e-07, No Iterations 24
time step continuity errors : sum local = 1.92992664124e-18, global = -6.22204992016e-21, cumulative = 2.17805631988e-20
DICPCG:  Solving for p, Initial residual = 6.16817662081e-06, Final residual = 9.03027339705e-07, No Iterations 15
time step continuity errors : sum local = 1.95645582886e-18, global = -1.46813791546e-21, cumulative = 2.03124252833e-20
DICPCG:  Solving for p, Initial residual = 3.77136237082e-06, Final residual = 9.65887482898e-07, No Iterations 8
time step continuity errors : sum local = 2.05858504001e-18, global = 9.01941068984e-21, cumulative = 2.93318359731e-20
DICPCG:  Solving for p, Initial residual = 2.47885738213e-06, Final residual = 8.73836524558e-07, No Iterations 4
time step continuity errors : sum local = 1.93525647085e-18, global = 5.15764377201e-21, cumulative = 3.44894797452e-20
DICPCG:  Solving for p, Initial residual = 1.65834644845e-06, Final residual = 6.90330737038e-07, No Iterations 3
time step continuity errors : sum local = 1.68920820511e-18, global = 5.70681993214e-21, cumulative = 4.01962996773e-20
ExecutionTime = 90.22 s  ClockTime = 90 s

Time = 5e-05

Courant Number mean: 0.00626195003282 max: 1.06249274381
DILUPBiCG:  Solving for Ux, Initial residual = 3.21352143308e-07, Final residual = 3.21352143308e-07, No Iterations 0
DILUPBiCG:  Solving for Uy, Initial residual = 0.333252666142, Final residual = 4.45718622558e-07, No Iterations 3
DILUPBiCG:  Solving for Uz, Initial residual = 0.116085400323, Final residual = 4.08514410181e-07, No Iterations 3
DICPCG:  Solving for p, Initial residual = 0.451272546705, Final residual = 9.48065936152e-07, No Iterations 552
time step continuity errors : sum local = 1.89320119776e-18, global = -2.21565872095e-20, cumulative = 1.80397124678e-20
DICPCG:  Solving for p, Initial residual = 0.248635620766, Final residual = 9.86497845916e-07, No Iterations 541
time step continuity errors : sum local = 2.47124110003e-18, global = -7.1376059357e-20, cumulative = -5.33363468892e-20
DICPCG:  Solving for p, Initial residual = 0.0786603807518, Final residual = 9.83673502558e-07, No Iterations 310
time step continuity errors : sum local = 2.20284124926e-18, global = 2.56362259909e-20, cumulative = -2.77001208983e-20
DICPCG:  Solving for p, Initial residual = 0.0240444740927, Final residual = 9.93779353135e-07, No Iterations 287
time step continuity errors : sum local = 2.20310184568e-18, global = 8.1138777517e-21, cumulative = -1.95862431466e-20
DICPCG:  Solving for p, Initial residual = 0.00868522411322, Final residual = 9.66079337409e-07, No Iterations 265
time step continuity errors : sum local = 2.15693871301e-18, global = 8.33015439508e-20, cumulative = 6.37153008042e-20
DICPCG:  Solving for p, Initial residual = 0.00353910187153, Final residual = 9.82091764006e-07, No Iterations 202
time step continuity errors : sum local = 2.31435508381e-18, global = 1.06251604134e-19, cumulative = 1.69966904938e-19
DICPCG:  Solving for p, Initial residual = 0.0015350659611, Final residual = 9.88007745619e-07, No Iterations 181
time step continuity errors : sum local = 2.2770151976e-18, global = 1.13562699082e-19, cumulative = 2.83529604021e-19
DICPCG:  Solving for p, Initial residual = 0.000704393650752, Final residual = 9.63492705298e-07, No Iterations 148
time step continuity errors : sum local = 2.25143507902e-18, global = 1.09660136333e-19, cumulative = 3.93189740354e-19
DICPCG:  Solving for p, Initial residual = 0.000329048473931, Final residual = 9.89145088144e-07, No Iterations 128
time step continuity errors : sum local = 2.29574299083e-18, global = 1.08942370071e-19, cumulative = 5.02132110424e-19
DICPCG:  Solving for p, Initial residual = 0.000158344003167, Final residual = 9.65892101283e-07, No Iterations 101
time step continuity errors : sum local = 2.2532314254e-18, global = 1.15430072167e-19, cumulative = 6.17562182591e-19
DICPCG:  Solving for p, Initial residual = 7.62376779259e-05, Final residual = 9.36563439814e-07, No Iterations 79
time step continuity errors : sum local = 2.2189718613e-18, global = 1.15396311531e-19, cumulative = 7.32958494122e-19
DICPCG:  Solving for p, Initial residual = 3.75909514304e-05, Final residual = 9.39114819089e-07, No Iterations 36
time step continuity errors : sum local = 2.26666494322e-18, global = 1.1200986327e-19, cumulative = 8.44968357392e-19
DICPCG:  Solving for p, Initial residual = 1.8717602985e-05, Final residual = 9.4009635774e-07, No Iterations 25
time step continuity errors : sum local = 2.28210881597e-18, global = 1.10375780922e-19, cumulative = 9.55344138315e-19
DICPCG:  Solving for p, Initial residual = 9.68403593475e-06, Final residual = 9.80300429331e-07, No Iterations 16
time step continuity errors : sum local = 2.34782706055e-18, global = 1.04841028481e-19, cumulative = 1.0601851668e-18
DICPCG:  Solving for p, Initial residual = 5.22591910597e-06, Final residual = 7.69035505779e-07, No Iterations 11
time step continuity errors : sum local = 1.97037951224e-18, global = 1.06887603324e-19, cumulative = 1.16707277012e-18
DICPCG:  Solving for p, Initial residual = 2.8482906163e-06, Final residual = 9.32760682051e-07, No Iterations 5
time step continuity errors : sum local = 2.26822282949e-18, global = 1.07226131651e-19, cumulative = 1.27429890177e-18
DICPCG:  Solving for p, Initial residual = 1.88950043368e-06, Final residual = 5.72424667858e-07, No Iterations 4
time step continuity errors : sum local = 1.61162083807e-18, global = 1.07837023137e-19, cumulative = 1.38213592491e-18
DICPCG:  Solving for p, Initial residual = 1.05081559214e-06, Final residual = 8.13837102242e-07, No Iterations 1
time step continuity errors : sum local = 2.0567721244e-18, global = 1.07605823342e-19, cumulative = 1.48974174825e-18
DICPCG:  Solving for p, Initial residual = 9.8012937203e-07, Final residual = 9.8012937203e-07, No Iterations 0
time step continuity errors : sum local = 2.36328649316e-18, global = 1.07903086814e-19, cumulative = 1.59764483506e-18
DICPCG:  Solving for p, Initial residual = 9.85154620205e-07, Final residual = 9.85154620205e-07, No Iterations 0
time step continuity errors : sum local = 2.372606171e-18, global = 1.07909999388e-19, cumulative = 1.70555483445e-18
ExecutionTime = 158.81 s  ClockTime = 159 s

Time = 7.5e-05

Courant Number mean: 0.0062619479842 max: 1.06244131162
DILUPBiCG:  Solving for Ux, Initial residual = 3.12908403316e-07, Final residual = 3.12908403316e-07, No Iterations 0
DILUPBiCG:  Solving for Uy, Initial residual = 0.224944266645, Final residual = 3.05335507712e-07, No Iterations 3
DILUPBiCG:  Solving for Uz, Initial residual = 0.0565098635173, Final residual = 2.03106209768e-07, No Iterations 3
DICPCG:  Solving for p, Initial residual = 0.263758245435, Final residual = 9.73734626967e-07, No Iterations 540
time step continuity errors : sum local = 2.49702624153e-18, global = -3.12338703743e-20, cumulative = 1.67432096408e-18
DICPCG:  Solving for p, Initial residual = 0.220052933887, Final residual = 9.85246430903e-07, No Iterations 538
time step continuity errors : sum local = 2.72457491946e-18, global = 2.82868465987e-20, cumulative = 1.70260781068e-18
DICPCG:  Solving for p, Initial residual = 0.0675734442495, Final residual = 9.459746186e-07, No Iterations 478
time step continuity errors : sum local = 2.36624400013e-18, global = 3.360257869e-20, cumulative = 1.73621038937e-18
DICPCG:  Solving for p, Initial residual = 0.0202250179906, Final residual = 9.4880152962e-07, No Iterations 288
time step continuity errors : sum local = 2.56893904837e-18, global = -1.31407352006e-20, cumulative = 1.72306965417e-18
DICPCG:  Solving for p, Initial residual = 0.00728812208435, Final residual = 9.97417786933e-07, No Iterations 271
time step continuity errors : sum local = 2.81585160891e-18, global = 7.90309295697e-21, cumulative = 1.73097274712e-18
DICPCG:  Solving for p, Initial residual = 0.00295111567917, Final residual = 9.70851840558e-07, No Iterations 209
time step continuity errors : sum local = 2.90442400093e-18, global = 3.27059526898e-20, cumulative = 1.76367869981e-18
DICPCG:  Solving for p, Initial residual = 0.00127655206536, Final residual = 9.55432517803e-07, No Iterations 387
time step continuity errors : sum local = 2.26398434516e-18, global = 7.49015829915e-21, cumulative = 1.77116885811e-18
DICPCG:  Solving for p, Initial residual = 0.000588227840473, Final residual = 9.99313640017e-07, No Iterations 145
time step continuity errors : sum local = 2.37337718153e-18, global = 6.95245496088e-21, cumulative = 1.77812131307e-18
DICPCG:  Solving for p, Initial residual = 0.000274421637214, Final residual = 9.89735386402e-07, No Iterations 123
time step continuity errors : sum local = 2.35498261721e-18, global = 1.84993096746e-20, cumulative = 1.79662062275e-18
DICPCG:  Solving for p, Initial residual = 0.00013280674888, Final residual = 9.98324872404e-07, No Iterations 90
time step continuity errors : sum local = 2.37737337162e-18, global = 1.2565120359e-20, cumulative = 1.80918574311e-18
DICPCG:  Solving for p, Initial residual = 6.40737375151e-05, Final residual = 9.739979493e-07, No Iterations 69
time step continuity errors : sum local = 2.36135272817e-18, global = 1.34281608081e-20, cumulative = 1.82261390391e-18
DICPCG:  Solving for p, Initial residual = 3.18787196209e-05, Final residual = 9.49150413092e-07, No Iterations 36
time step continuity errors : sum local = 2.34377170879e-18, global = 2.49464327306e-21, cumulative = 1.82510854719e-18
DICPCG:  Solving for p, Initial residual = 1.59835653693e-05, Final residual = 9.46110539628e-07, No Iterations 24
time step continuity errors : sum local = 2.35109856879e-18, global = 5.96587864223e-21, cumulative = 1.83107442583e-18
DICPCG:  Solving for p, Initial residual = 8.37550887497e-06, Final residual = 8.17462662727e-07, No Iterations 16
time step continuity errors : sum local = 2.07368908711e-18, global = 5.84930838739e-21, cumulative = 1.83692373422e-18
DICPCG:  Solving for p, Initial residual = 4.45379170391e-06, Final residual = 7.76816245567e-07, No Iterations 11
time step continuity errors : sum local = 2.00574915242e-18, global = 1.23484913077e-20, cumulative = 1.84927222552e-18
DICPCG:  Solving for p, Initial residual = 2.572745053e-06, Final residual = 9.48375869616e-07, No Iterations 5
time step continuity errors : sum local = 2.36586337574e-18, global = 1.33842414624e-20, cumulative = 1.86265646699e-18
DICPCG:  Solving for p, Initial residual = 1.77910931475e-06, Final residual = 9.63283069405e-07, No Iterations 3
time step continuity errors : sum local = 2.4065435989e-18, global = 1.39059662831e-20, cumulative = 1.87656243327e-18
DICPCG:  Solving for p, Initial residual = 1.34674480669e-06, Final residual = 7.26366619896e-07, No Iterations 2
time step continuity errors : sum local = 1.90996357183e-18, global = 1.3780381818e-20, cumulative = 1.89034281509e-18
DICPCG:  Solving for p, Initial residual = 9.24705697135e-07, Final residual = 9.24705697135e-07, No Iterations 0
time step continuity errors : sum local = 2.3298974357e-18, global = 1.38791989006e-20, cumulative = 1.90422201399e-18
DICPCG:  Solving for p, Initial residual = 9.33667746291e-07, Final residual = 9.33667746291e-07, No Iterations 0
time step continuity errors : sum local = 2.34903879649e-18, global = 1.38757952447e-20, cumulative = 1.91809780923e-18
ExecutionTime = 232.95 s  ClockTime = 233 s

Time = 0.0001

Courant Number mean: 0.0062619459903 max: 1.06239190395
DILUPBiCG:  Solving for Ux, Initial residual = 3.04024331326e-07, Final residual = 3.04024331326e-07, No Iterations 0
DILUPBiCG:  Solving for Uy, Initial residual = 0.155790777181, Final residual = 2.13069671068e-07, No Iterations 3
DILUPBiCG:  Solving for Uz, Initial residual = 0.0302952010418, Final residual = 1.08033563097e-07, No Iterations 3
DICPCG:  Solving for p, Initial residual = 0.217465801777, Final residual = 9.4529387749e-07, No Iterations 541
time step continuity errors : sum local = 2.63566315636e-18, global = -2.25903979949e-20, cumulative = 1.89550741124e-18
DICPCG:  Solving for p, Initial residual = 0.198931474456, Final residual = 9.88205317502e-07, No Iterations 536
time step continuity errors : sum local = 2.92366299502e-18, global = -2.36798473519e-20, cumulative = 1.87182756389e-18
DICPCG:  Solving for p, Initial residual = 0.059821004306, Final residual = 9.82852216422e-07, No Iterations 302
time step continuity errors : sum local = 2.94513689723e-18, global = 9.12383124757e-20, cumulative = 1.96306587636e-18
DICPCG:  Solving for p, Initial residual = 0.0179404652475, Final residual = 9.73211794656e-07, No Iterations 295
time step continuity errors : sum local = 3.06317150101e-18, global = -7.74461143471e-20, cumulative = 1.88561976201e-18
DICPCG:  Solving for p, Initial residual = 0.00645505936929, Final residual = 9.98588848372e-07, No Iterations 274
time step continuity errors : sum local = 3.1926315339e-18, global = 1.94017036664e-20, cumulative = 1.90502146568e-18
DICPCG:  Solving for p, Initial residual = 0.00261993149902, Final residual = 9.54966857348e-07, No Iterations 404
time step continuity errors : sum local = 2.50987704639e-18, global = 4.43965305409e-20, cumulative = 1.94941799622e-18
DICPCG:  Solving for p, Initial residual = 0.00113458367809, Final residual = 9.86404057008e-07, No Iterations 161
time step continuity errors : sum local = 2.54346211052e-18, global = 3.63195482878e-20, cumulative = 1.98573754451e-18
DICPCG:  Solving for p, Initial residual = 0.000523241101243, Final residual = 9.77758858928e-07, No Iterations 143
time step continuity errors : sum local = 2.55451718412e-18, global = 2.90545247401e-20, cumulative = 2.01479206925e-18
DICPCG:  Solving for p, Initial residual = 0.00024440258718, Final residual = 9.5764261089e-07, No Iterations 122
time step continuity errors : sum local = 2.50434163133e-18, global = 3.86591928164e-20, cumulative = 2.05345126207e-18
DICPCG:  Solving for p, Initial residual = 0.000118280671599, Final residual = 9.93086740374e-07, No Iterations 79
time step continuity errors : sum local = 2.59176348596e-18, global = 3.73743722458e-20, cumulative = 2.09082563431e-18
DICPCG:  Solving for p, Initial residual = 5.71851563588e-05, Final residual = 9.91987753351e-07, No Iterations 72
time step continuity errors : sum local = 2.61847043983e-18, global = 3.60034575503e-20, cumulative = 2.12682909186e-18
DICPCG:  Solving for p, Initial residual = 2.8474566637e-05, Final residual = 9.5024342444e-07, No Iterations 30
time step continuity errors : sum local = 2.55730482092e-18, global = 4.17846886e-20, cumulative = 2.16861378046e-18
DICPCG:  Solving for p, Initial residual = 1.43233081939e-05, Final residual = 9.78840353607e-07, No Iterations 20
time step continuity errors : sum local = 2.66089933666e-18, global = 4.4227473887e-20, cumulative = 2.21284125435e-18
DICPCG:  Solving for p, Initial residual = 7.58597425485e-06, Final residual = 9.96042806991e-07, No Iterations 12
time step continuity errors : sum local = 2.69593289411e-18, global = 4.43672890358e-20, cumulative = 2.25720854339e-18
DICPCG:  Solving for p, Initial residual = 4.19727544734e-06, Final residual = 8.3060211601e-07, No Iterations 8
time step continuity errors : sum local = 2.31262968371e-18, global = 3.4168159013e-20, cumulative = 2.2913767024e-18
DICPCG:  Solving for p, Initial residual = 2.39342834588e-06, Final residual = 8.53111190704e-07, No Iterations 4
time step continuity errors : sum local = 2.37110564254e-18, global = 3.52616082936e-20, cumulative = 2.32663831069e-18
DICPCG:  Solving for p, Initial residual = 1.57034872784e-06, Final residual = 6.28885023817e-07, No Iterations 3
time step continuity errors : sum local = 1.84640448886e-18, global = 3.57437521038e-20, cumulative = 2.3623820628e-18
DICPCG:  Solving for p, Initial residual = 9.83236902803e-07, Final residual = 9.83236902803e-07, No Iterations 0
time step continuity errors : sum local = 2.6799403957e-18, global = 3.5530289262e-20, cumulative = 2.39791235206e-18
DICPCG:  Solving for p, Initial residual = 1.01120518093e-06, Final residual = 8.55624745689e-07, No Iterations 1
time step continuity errors : sum local = 2.38474757351e-18, global = 3.58801301283e-20, cumulative = 2.43379248219e-18
DICPCG:  Solving for p, Initial residual = 1.01659877067e-06, Final residual = 7.23889433757e-07, No Iterations 1
time step continuity errors : sum local = 2.07507228734e-18, global = 3.57793232328e-20, cumulative = 2.46957180542e-18
ExecutionTime = 303.79 s  ClockTime = 304 s

Time = 0.000125

Courant Number mean: 0.00626194405345 max: 1.06234460222
DILUPBiCG:  Solving for Ux, Initial residual = 2.95323637866e-07, Final residual = 2.95323637866e-07, No Iterations 0
DILUPBiCG:  Solving for Uy, Initial residual = 0.124245927343, Final residual = 1.65174221639e-07, No Iterations 3
DILUPBiCG:  Solving for Uz, Initial residual = 0.0187457926568, Final residual = 6.59932153e-08, No Iterations 3
DICPCG:  Solving for p, Initial residual = 0.185957349355, Final residual = 9.83222248203e-07, No Iterations 538
time step continuity errors : sum local = 2.91961124061e-18, global = 7.72872800537e-21, cumulative = 2.47730053342e-18
DICPCG:  Solving for p, Initial residual = 0.179586512633, Final residual = 9.94019373042e-07, No Iterations 534
time step continuity errors : sum local = 3.22683699421e-18, global = -9.77853820741e-20, cumulative = 2.37951515135e-18
DICPCG:  Solving for p, Initial residual = 0.0528069547009, Final residual = 9.44012415052e-07, No Iterations 301
time step continuity errors : sum local = 3.02361840224e-18, global = 5.93007983582e-20, cumulative = 2.43881594971e-18
DICPCG:  Solving for p, Initial residual = 0.015829013412, Final residual = 9.85614550015e-07, No Iterations 285
time step continuity errors : sum local = 3.25071632032e-18, global = 5.95723256829e-20, cumulative = 2.49838827539e-18
DICPCG:  Solving for p, Initial residual = 0.00567620038296, Final residual = 9.5492702568e-07, No Iterations 268
time step continuity errors : sum local = 3.2329015553e-18, global = 2.19183533853e-21, cumulative = 2.50058011073e-18
DICPCG:  Solving for p, Initial residual = 0.0023026313518, Final residual = 9.88761307491e-07, No Iterations 205
time step continuity errors : sum local = 3.44355824709e-18, global = 6.65076775599e-21, cumulative = 2.50723087849e-18
DICPCG:  Solving for p, Initial residual = 0.000996300032001, Final residual = 9.85780271107e-07, No Iterations 383
time step continuity errors : sum local = 2.78091408101e-18, global = 1.11906387042e-20, cumulative = 2.51842151719e-18
DICPCG:  Solving for p, Initial residual = 0.000458429111525, Final residual = 9.94739674566e-07, No Iterations 140
time step continuity errors : sum local = 2.8105760913e-18, global = 2.51571963775e-21, cumulative = 2.52093723683e-18
DICPCG:  Solving for p, Initial residual = 0.000214072563089, Final residual = 9.84651814913e-07, No Iterations 119
time step continuity errors : sum local = 2.79273130466e-18, global = 2.87254043287e-21, cumulative = 2.52380977726e-18
DICPCG:  Solving for p, Initial residual = 0.000103482667384, Final residual = 9.87606414882e-07, No Iterations 78
time step continuity errors : sum local = 2.80729891279e-18, global = -5.1018987433e-22, cumulative = 2.52329958739e-18
DICPCG:  Solving for p, Initial residual = 5.00305071331e-05, Final residual = 9.52794174687e-07, No Iterations 69
time step continuity errors : sum local = 2.75020850965e-18, global = 1.39572618014e-21, cumulative = 2.52469531357e-18
DICPCG:  Solving for p, Initial residual = 2.49242612057e-05, Final residual = 8.9472438063e-07, No Iterations 30
time step continuity errors : sum local = 2.63109681624e-18, global = 6.09091249195e-21, cumulative = 2.53078622606e-18
DICPCG:  Solving for p, Initial residual = 1.25502404291e-05, Final residual = 9.68251880885e-07, No Iterations 19
time step continuity errors : sum local = 2.85120007202e-18, global = 2.53867813545e-21, cumulative = 2.53332490419e-18
DICPCG:  Solving for p, Initial residual = 6.69554479024e-06, Final residual = 8.49865638573e-07, No Iterations 12
time step continuity errors : sum local = 2.53692183917e-18, global = -2.84724474594e-21, cumulative = 2.53047765945e-18
DICPCG:  Solving for p, Initial residual = 3.63391347124e-06, Final residual = 8.86056716176e-07, No Iterations 7
time step continuity errors : sum local = 2.63770501456e-18, global = -1.55837573416e-21, cumulative = 2.52891928371e-18
DICPCG:  Solving for p, Initial residual = 2.23624038421e-06, Final residual = 6.92834670116e-07, No Iterations 4
time step continuity errors : sum local = 2.1398980139e-18, global = -8.91680521513e-22, cumulative = 2.52802760319e-18
DICPCG:  Solving for p, Initial residual = 1.31154215029e-06, Final residual = 8.92364509094e-07, No Iterations 2
time step continuity errors : sum local = 2.66416953054e-18, global = -1.15258965844e-21, cumulative = 2.52687501353e-18
DICPCG:  Solving for p, Initial residual = 1.18746000354e-06, Final residual = 4.31161663913e-07, No Iterations 2
time step continuity errors : sum local = 1.47109118956e-18, global = -8.33577295494e-22, cumulative = 2.52604143624e-18
DICPCG:  Solving for p, Initial residual = 5.81205861866e-07, Final residual = 5.81205861866e-07, No Iterations 0
time step continuity errors : sum local = 1.85840561121e-18, global = -7.4689808039e-22, cumulative = 2.52529453816e-18
DICPCG:  Solving for p, Initial residual = 5.87145958285e-07, Final residual = 5.87145958285e-07, No Iterations 0
time step continuity errors : sum local = 1.87396195994e-18, global = -7.39720170277e-22, cumulative = 2.52455481799e-18
ExecutionTime = 373.13 s  ClockTime = 373 s

Time = 0.00015

Courant Number mean: 0.00626194217308 max: 1.0622993647
DILUPBiCG:  Solving for Ux, Initial residual = 2.86930151742e-07, Final residual = 2.86930151742e-07, No Iterations 0
DILUPBiCG:  Solving for Uy, Initial residual = 0.108107880053, Final residual = 1.45882528733e-07, No Iterations 3
DILUPBiCG:  Solving for Uz, Initial residual = 0.0132000718198, Final residual = 4.67089812734e-08, No Iterations 3
DICPCG:  Solving for p, Initial residual = 0.16833457417, Final residual = 9.89130619138e-07, No Iterations 536
time step continuity errors : sum local = 3.20347887748e-18, global = -6.15821765297e-20, cumulative = 2.46297264146e-18
DICPCG:  Solving for p, Initial residual = 0.166446168061, Final residual = 9.81567352916e-07, No Iterations 533
time step continuity errors : sum local = 3.29966806322e-18, global = -1.53221463997e-20, cumulative = 2.44765049506e-18
DICPCG:  Solving for p, Initial residual = 0.0478708403096, Final residual = 9.9678536107e-07, No Iterations 299
time step continuity errors : sum local = 3.47328621309e-18, global = 9.72534394094e-20, cumulative = 2.54490393447e-18
DICPCG:  Solving for p, Initial residual = 0.0143144412153, Final residual = 9.99405020302e-07, No Iterations 287
time step continuity errors : sum local = 3.59980849179e-18, global = -1.46036596818e-20, cumulative = 2.53030027479e-18
DICPCG:  Solving for p, Initial residual = 0.00512301557497, Final residual = 9.98816734726e-07, No Iterations 425
time step continuity errors : sum local = 3.07107347676e-18, global = -5.74659141436e-20, cumulative = 2.47283436064e-18
DICPCG:  Solving for p, Initial residual = 0.00207866621276, Final residual = 9.80900611569e-07, No Iterations 189
time step continuity errors : sum local = 3.03108559138e-18, global = -1.02276350798e-19, cumulative = 2.37055800984e-18
DICPCG:  Solving for p, Initial residual = 0.000898832558617, Final residual = 9.95424190801e-07, No Iterations 154
time step continuity errors : sum local = 3.03412415979e-18, global = -9.26304280592e-20, cumulative = 2.27792758178e-18
DICPCG:  Solving for p, Initial residual = 0.000413922824376, Final residual = 9.93416625124e-07, No Iterations 138
time step continuity errors : sum local = 3.04825225993e-18, global = -8.74953797119e-20, cumulative = 2.19043220207e-18
DICPCG:  Solving for p, Initial residual = 0.000193315381497, Final residual = 9.96912481519e-07, No Iterations 117
time step continuity errors : sum local = 3.06343260253e-18, global = -8.7533028125e-20, cumulative = 2.10289917395e-18
DICPCG:  Solving for p, Initial residual = 9.35460920304e-05, Final residual = 9.93931829421e-07, No Iterations 73
time step continuity errors : sum local = 3.0608749336e-18, global = -8.19208700496e-20, cumulative = 2.0209783039e-18
DICPCG:  Solving for p, Initial residual = 4.5254665741e-05, Final residual = 9.89563871081e-07, No Iterations 64
time step continuity errors : sum local = 3.0716178026e-18, global = -7.87953799978e-20, cumulative = 1.9421829239e-18
DICPCG:  Solving for p, Initial residual = 2.26024795735e-05, Final residual = 8.10032664211e-07, No Iterations 30
time step continuity errors : sum local = 2.59701159238e-18, global = -8.54312783952e-20, cumulative = 1.8567516455e-18
DICPCG:  Solving for p, Initial residual = 1.13374215135e-05, Final residual = 9.83867959641e-07, No Iterations 16
time step continuity errors : sum local = 3.10153634377e-18, global = -7.80738205125e-20, cumulative = 1.77867782499e-18
DICPCG:  Solving for p, Initial residual = 6.13758532385e-06, Final residual = 8.05044200772e-07, No Iterations 11
time step continuity errors : sum local = 2.60420637369e-18, global = -7.27338773153e-20, cumulative = 1.70594394768e-18
DICPCG:  Solving for p, Initial residual = 3.31310408154e-06, Final residual = 9.94399416586e-07, No Iterations 5
time step continuity errors : sum local = 3.13848601732e-18, global = -8.23998004917e-20, cumulative = 1.62354414719e-18
DICPCG:  Solving for p, Initial residual = 2.15223125135e-06, Final residual = 6.06302599981e-07, No Iterations 4
time step continuity errors : sum local = 2.05029399903e-18, global = -8.16044393195e-20, cumulative = 1.54193970787e-18
DICPCG:  Solving for p, Initial residual = 1.18220565884e-06, Final residual = 8.96149179039e-07, No Iterations 1
time step continuity errors : sum local = 2.86984592547e-18, global = -8.09643922431e-20, cumulative = 1.46097531562e-18
DICPCG:  Solving for p, Initial residual = 1.09445985655e-06, Final residual = 6.66046486979e-07, No Iterations 1
time step continuity errors : sum local = 2.22287343582e-18, global = -8.11815847273e-20, cumulative = 1.3797937309e-18
DICPCG:  Solving for p, Initial residual = 7.43816340756e-07, Final residual = 7.43816340756e-07, No Iterations 0
time step continuity errors : sum local = 2.44078780534e-18, global = -8.11645934784e-20, cumulative = 1.29862913742e-18
DICPCG:  Solving for p, Initial residual = 7.43295999628e-07, Final residual = 7.43295999628e-07, No Iterations 0
time step continuity errors : sum local = 2.43929174034e-18, global = -8.11599873171e-20, cumulative = 1.2174691501e-18
ExecutionTime = 441.51 s  ClockTime = 441 s

Time = 0.000175

Courant Number mean: 0.00626194034725 max: 1.06225611139
DILUPBiCG:  Solving for Ux, Initial residual = 2.7887608681e-07, Final residual = 2.7887608681e-07, No Iterations 0
DILUPBiCG:  Solving for Uy, Initial residual = 0.0959140190133, Final residual = 1.31303064347e-07, No Iterations 3
DILUPBiCG:  Solving for Uz, Initial residual = 0.00977658507211, Final residual = 9.56837559324e-07, No Iterations 2
DICPCG:  Solving for p, Initial residual = 0.156141713855, Final residual = 9.94014274253e-07, No Iterations 535
time step continuity errors : sum local = 3.3821654912e-18, global = 4.27857561773e-20, cumulative = 1.26025490628e-18
DICPCG:  Solving for p, Initial residual = 0.155779721061, Final residual = 9.72530947885e-07, No Iterations 532
time step continuity errors : sum local = 3.42481597504e-18, global = -4.41084224196e-21, cumulative = 1.25584406404e-18
DICPCG:  Solving for p, Initial residual = 0.0439598639535, Final residual = 9.45601054399e-07, No Iterations 299
time step continuity errors : sum local = 3.43835918954e-18, global = -1.81460100071e-20, cumulative = 1.23769805403e-18
DICPCG:  Solving for p, Initial residual = 0.0131371226496, Final residual = 9.97685617142e-07, No Iterations 284
time step continuity errors : sum local = 3.71053563601e-18, global = -3.48067092245e-20, cumulative = 1.2028913448e-18
DICPCG:  Solving for p, Initial residual = 0.00469411077742, Final residual = 9.96576439662e-07, No Iterations 267
time step continuity errors : sum local = 3.76237657301e-18, global = -4.80882580014e-20, cumulative = 1.1548030868e-18
DICPCG:  Solving for p, Initial residual = 0.00190571254785, Final residual = 9.97240255648e-07, No Iterations 204
time step continuity errors : sum local = 3.87996435344e-18, global = -4.55784022151e-20, cumulative = 1.10922468459e-18
DICPCG:  Solving for p, Initial residual = 0.000823925700836, Final residual = 9.99197461838e-07, No Iterations 159
time step continuity errors : sum local = 3.85712848123e-18, global = -2.04037490279e-20, cumulative = 1.08882093556e-18
DICPCG:  Solving for p, Initial residual = 0.000379696681579, Final residual = 9.9804780285e-07, No Iterations 145
time step continuity errors : sum local = 3.86795558222e-18, global = -1.91645320117e-20, cumulative = 1.06965640355e-18
DICPCG:  Solving for p, Initial residual = 0.000177390099056, Final residual = 9.70137352374e-07, No Iterations 122
time step continuity errors : sum local = 3.77682780031e-18, global = -2.99296212361e-20, cumulative = 1.03972678231e-18
DICPCG:  Solving for p, Initial residual = 8.58628484286e-05, Final residual = 9.70053276819e-07, No Iterations 314
time step continuity errors : sum local = 3.13391884682e-18, global = -3.78433441305e-20, cumulative = 1.00188343818e-18
DICPCG:  Solving for p, Initial residual = 4.16663960102e-05, Final residual = 9.76053069125e-07, No Iterations 39
time step continuity errors : sum local = 3.25366199061e-18, global = -3.04617874584e-20, cumulative = 9.71421650723e-19
DICPCG:  Solving for p, Initial residual = 2.08449614392e-05, Final residual = 9.90483043945e-07, No Iterations 26
time step continuity errors : sum local = 3.29644494437e-18, global = -3.44006486738e-20, cumulative = 9.37021002049e-19
DICPCG:  Solving for p, Initial residual = 1.0625001768e-05, Final residual = 9.91777539889e-07, No Iterations 16
time step continuity errors : sum local = 3.32064817458e-18, global = -3.08528219234e-20, cumulative = 9.06168180126e-19
DICPCG:  Solving for p, Initial residual = 5.7129308349e-06, Final residual = 8.82099007552e-07, No Iterations 11
time step continuity errors : sum local = 2.99236488227e-18, global = -3.15264644878e-20, cumulative = 8.74641715638e-19
DICPCG:  Solving for p, Initial residual = 3.17667223787e-06, Final residual = 8.31224702587e-07, No Iterations 7
time step continuity errors : sum local = 2.84894886337e-18, global = -3.02037806444e-20, cumulative = 8.44437934994e-19
DICPCG:  Solving for p, Initial residual = 1.95286257947e-06, Final residual = 6.34341781394e-07, No Iterations 4
time step continuity errors : sum local = 2.26304628324e-18, global = -2.99584965632e-20, cumulative = 8.1447943843e-19
DICPCG:  Solving for p, Initial residual = 1.15467438343e-06, Final residual = 9.58231284166e-07, No Iterations 1
time step continuity errors : sum local = 3.23489409066e-18, global = -4.1096904279e-20, cumulative = 7.73382534151e-19
DICPCG:  Solving for p, Initial residual = 1.14213672495e-06, Final residual = 7.17482587078e-07, No Iterations 1
time step continuity errors : sum local = 2.51284306681e-18, global = -4.04613200213e-20, cumulative = 7.3292121413e-19
DICPCG:  Solving for p, Initial residual = 7.8280296393e-07, Final residual = 7.8280296393e-07, No Iterations 0
time step continuity errors : sum local = 2.70719944838e-18, global = -4.06617961208e-20, cumulative = 6.92259418009e-19
DICPCG:  Solving for p, Initial residual = 7.8202917634e-07, Final residual = 7.8202917634e-07, No Iterations 0
time step continuity errors : sum local = 2.70486472547e-18, global = -4.06664816093e-20, cumulative = 6.515929364e-19
ExecutionTime = 510.21 s  ClockTime = 510 s

Time = 0.0002

Courant Number mean: 0.00626193857374 max: 1.0622147527
DILUPBiCG:  Solving for Ux, Initial residual = 2.71172388055e-07, Final residual = 2.71172388055e-07, No Iterations 0
DILUPBiCG:  Solving for Uy, Initial residual = 0.0868797349917, Final residual = 1.2024662467e-07, No Iterations 3
DILUPBiCG:  Solving for Uz, Initial residual = 0.00755614565063, Final residual = 7.42247380131e-07, No Iterations 2
DICPCG:  Solving for p, Initial residual = 0.145673950244, Final residual = 9.81581696277e-07, No Iterations 534
time step continuity errors : sum local = 3.54314790683e-18, global = -7.69488394373e-20, cumulative = 5.74644096963e-19
DICPCG:  Solving for p, Initial residual = 0.146587299029, Final residual = 9.76053561943e-07, No Iterations 531
time step continuity errors : sum local = 3.67102630955e-18, global = 8.67990958727e-20, cumulative = 6.61443192835e-19
DICPCG:  Solving for p, Initial residual = 0.0406809650262, Final residual = 9.75293255512e-07, No Iterations 298
time step continuity errors : sum local = 3.73704304185e-18, global = -9.00921278169e-20, cumulative = 5.71351065019e-19
DICPCG:  Solving for p, Initial residual = 0.0121565793403, Final residual = 9.75921225178e-07, No Iterations 284
time step continuity errors : sum local = 3.85311810386e-18, global = -5.07705049883e-20, cumulative = 5.2058056003e-19
DICPCG:  Solving for p, Initial residual = 0.00433661405222, Final residual = 9.90377097563e-07, No Iterations 266
time step continuity errors : sum local = 3.94507702358e-18, global = -4.04048531212e-20, cumulative = 4.80175706909e-19
DICPCG:  Solving for p, Initial residual = 0.0017612817874, Final residual = 9.91223649069e-07, No Iterations 199
time step continuity errors : sum local = 4.05856958128e-18, global = -1.6827985866e-20, cumulative = 4.63347721043e-19
DICPCG:  Solving for p, Initial residual = 0.000761320763385, Final residual = 9.68758939792e-07, No Iterations 158
time step continuity errors : sum local = 3.95963954794e-18, global = -1.48882912368e-20, cumulative = 4.48459429806e-19
DICPCG:  Solving for p, Initial residual = 0.000350966105533, Final residual = 9.72249657801e-07, No Iterations 145
time step continuity errors : sum local = 3.98322577615e-18, global = -2.1873538054e-20, cumulative = 4.26585891752e-19
DICPCG:  Solving for p, Initial residual = 0.000164009466568, Final residual = 9.90385556085e-07, No Iterations 120
time step continuity errors : sum local = 4.03068984406e-18, global = -2.01592956505e-20, cumulative = 4.06426596102e-19
DICPCG:  Solving for p, Initial residual = 7.94431469721e-05, Final residual = 9.90579022438e-07, No Iterations 80
time step continuity errors : sum local = 4.03234032738e-18, global = -2.31779144424e-20, cumulative = 3.83248681659e-19
DICPCG:  Solving for p, Initial residual = 3.85338517152e-05, Final residual = 9.92867201005e-07, No Iterations 64
time step continuity errors : sum local = 4.05159189405e-18, global = -2.94166490022e-20, cumulative = 3.53832032657e-19
DICPCG:  Solving for p, Initial residual = 1.93037181967e-05, Final residual = 9.91548320415e-07, No Iterations 25
time step continuity errors : sum local = 4.04684899275e-18, global = -3.32838595077e-20, cumulative = 3.20548173149e-19
DICPCG:  Solving for p, Initial residual = 9.90247949508e-06, Final residual = 9.01327242294e-07, No Iterations 16
time step continuity errors : sum local = 3.76763409941e-18, global = -3.18561089416e-20, cumulative = 2.88692064208e-19
DICPCG:  Solving for p, Initial residual = 5.26456601311e-06, Final residual = 7.91517631594e-07, No Iterations 11
time step continuity errors : sum local = 3.41406661043e-18, global = -2.65899827094e-20, cumulative = 2.62102081498e-19
DICPCG:  Solving for p, Initial residual = 2.91523171634e-06, Final residual = 9.51215601757e-07, No Iterations 5
time step continuity errors : sum local = 3.92628475065e-18, global = -2.57370150657e-20, cumulative = 2.36365066433e-19
DICPCG:  Solving for p, Initial residual = 1.93294927616e-06, Final residual = 9.86130749536e-07, No Iterations 3
time step continuity errors : sum local = 4.03941546228e-18, global = -2.53452861095e-20, cumulative = 2.11019780323e-19
DICPCG:  Solving for p, Initial residual = 1.43513978766e-06, Final residual = 7.81007137894e-07, No Iterations 2
time step continuity errors : sum local = 3.38780495685e-18, global = -2.4883096686e-20, cumulative = 1.86136683637e-19
DICPCG:  Solving for p, Initial residual = 1.00949933013e-06, Final residual = 8.10598729586e-07, No Iterations 1
time step continuity errors : sum local = 3.4836995754e-18, global = -2.49131126372e-20, cumulative = 1.61223571e-19
DICPCG:  Solving for p, Initial residual = 8.77311377343e-07, Final residual = 8.77311377343e-07, No Iterations 0
time step continuity errors : sum local = 3.69509961235e-18, global = -2.48553872188e-20, cumulative = 1.36368183781e-19
DICPCG:  Solving for p, Initial residual = 8.78559211209e-07, Final residual = 8.78559211209e-07, No Iterations 0
time step continuity errors : sum local = 3.69903661663e-18, global = -2.4827754097e-20, cumulative = 1.11540429684e-19
ExecutionTime = 575.67 s  ClockTime = 575 s

Time = 0.000225

Courant Number mean: 0.00626193685036 max: 1.06217519893
DILUPBiCG:  Solving for Ux, Initial residual = 2.63807128425e-07, Final residual = 2.63807128425e-07, No Iterations 0
DILUPBiCG:  Solving for Uy, Initial residual = 0.0797991955025, Final residual = 1.11812870754e-07, No Iterations 3
DILUPBiCG:  Solving for Uz, Initial residual = 0.00604685003188, Final residual = 5.94978831999e-07, No Iterations 2
DICPCG:  Solving for p, Initial residual = 0.136960986571, Final residual = 9.53213696959e-07, No Iterations 533
time step continuity errors : sum local = 3.53017663837e-18, global = -1.00057740896e-20, cumulative = 1.01534655595e-19
DICPCG:  Solving for p, Initial residual = 0.138615613243, Final residual = 9.89467887975e-07, No Iterations 530
time step continuity errors : sum local = 3.80622171635e-18, global = 3.09670110053e-20, cumulative = 1.325016666e-19
DICPCG:  Solving for p, Initial residual = 0.0378876680296, Final residual = 9.58517330039e-07, No Iterations 297
time step continuity errors : sum local = 3.75830518162e-18, global = -3.09915214688e-20, cumulative = 1.01510145131e-19
DICPCG:  Solving for p, Initial residual = 0.0113224025243, Final residual = 9.94953213603e-07, No Iterations 279
time step continuity errors : sum local = 3.99311687413e-18, global = 5.344287077e-20, cumulative = 1.54953015901e-19
DICPCG:  Solving for p, Initial residual = 0.00403280389447, Final residual = 9.27732006703e-07, No Iterations 259
time step continuity errors : sum local = 3.82129190082e-18, global = 4.61389373508e-20, cumulative = 2.01091953252e-19
DICPCG:  Solving for p, Initial residual = 0.00163841653433, Final residual = 9.78160059606e-07, No Iterations 189
time step continuity errors : sum local = 4.09719134995e-18, global = 2.74406995796e-20, cumulative = 2.28532652832e-19
DICPCG:  Solving for p, Initial residual = 0.000708032457546, Final residual = 9.66694306108e-07, No Iterations 152
time step continuity errors : sum local = 4.02218712111e-18, global = 3.24973117793e-20, cumulative = 2.61029964611e-19
DICPCG:  Solving for p, Initial residual = 0.000326516503358, Final residual = 9.9695057845e-07, No Iterations 138
time step continuity errors : sum local = 4.13310233424e-18, global = 2.46110828274e-20, cumulative = 2.85641047438e-19
DICPCG:  Solving for p, Initial residual = 0.000152637222694, Final residual = 9.64772860822e-07, No Iterations 117
time step continuity errors : sum local = 4.02725462322e-18, global = 2.20469302555e-20, cumulative = 3.07687977694e-19
DICPCG:  Solving for p, Initial residual = 7.39544280874e-05, Final residual = 9.82093290602e-07, No Iterations 72
time step continuity errors : sum local = 4.08206247848e-18, global = 2.3714922343e-20, cumulative = 3.31402900037e-19
DICPCG:  Solving for p, Initial residual = 3.58897988356e-05, Final residual = 9.82019251895e-07, No Iterations 42
time step continuity errors : sum local = 4.09528223767e-18, global = 2.23080286905e-20, cumulative = 3.53710928727e-19
DICPCG:  Solving for p, Initial residual = 1.80424866004e-05, Final residual = 9.80118673192e-07, No Iterations 26
time step continuity errors : sum local = 4.08163373836e-18, global = 1.63397350417e-20, cumulative = 3.70050663769e-19
DICPCG:  Solving for p, Initial residual = 9.25732178479e-06, Final residual = 9.24781172259e-07, No Iterations 16
time step continuity errors : sum local = 3.8932572033e-18, global = 1.75692110526e-20, cumulative = 3.87619874822e-19
DICPCG:  Solving for p, Initial residual = 4.98525799408e-06, Final residual = 8.49306045239e-07, No Iterations 11
time step continuity errors : sum local = 3.63854421015e-18, global = 1.16498449406e-20, cumulative = 3.99269719762e-19
DICPCG:  Solving for p, Initial residual = 2.82201336762e-06, Final residual = 7.69985140674e-07, No Iterations 7
time step continuity errors : sum local = 3.37664835435e-18, global = 1.23345189846e-20, cumulative = 4.11604238747e-19
DICPCG:  Solving for p, Initial residual = 1.73417576089e-06, Final residual = 6.84560164848e-07, No Iterations 4
time step continuity errors : sum local = 3.08978911273e-18, global = 1.29518217755e-20, cumulative = 4.24556060522e-19
DICPCG:  Solving for p, Initial residual = 1.12957113443e-06, Final residual = 9.30780797772e-07, No Iterations 1
time step continuity errors : sum local = 3.91731421571e-18, global = 1.29068311236e-20, cumulative = 4.37462891646e-19
DICPCG:  Solving for p, Initial residual = 1.0901034913e-06, Final residual = 7.38496840585e-07, No Iterations 1
time step continuity errors : sum local = 3.27416614579e-18, global = 1.28674945687e-20, cumulative = 4.50330386215e-19
DICPCG:  Solving for p, Initial residual = 7.95315773237e-07, Final residual = 7.95315773237e-07, No Iterations 0
time step continuity errors : sum local = 3.46352733174e-18, global = 1.28443413427e-20, cumulative = 4.63174727557e-19
DICPCG:  Solving for p, Initial residual = 7.94695976415e-07, Final residual = 7.94695976415e-07, No Iterations 0
time step continuity errors : sum local = 3.46143294052e-18, global = 1.28471225872e-20, cumulative = 4.76021850144e-19
ExecutionTime = 638.58 s  ClockTime = 638 s

Time = 0.00025

Courant Number mean: 0.00626193517496 max: 1.06213736332
DILUPBiCG:  Solving for Ux, Initial residual = 2.56764299616e-07, Final residual = 2.56764299616e-07, No Iterations 0
DILUPBiCG:  Solving for Uy, Initial residual = 0.0739131984606, Final residual = 1.05002294741e-07, No Iterations 3
DILUPBiCG:  Solving for Uz, Initial residual = 0.00497287347179, Final residual = 4.89446542022e-07, No Iterations 2
DICPCG:  Solving for p, Initial residual = 0.129601328912, Final residual = 9.38028006425e-07, No Iterations 532
time step continuity errors : sum local = 3.64200952395e-18, global = -3.71580461742e-20, cumulative = 4.3886380397e-19
DICPCG:  Solving for p, Initial residual = 0.131655375763, Final residual = 9.94343318647e-07, No Iterations 529
time step continuity errors : sum local = 3.93293233334e-18, global = -2.54291844846e-21, cumulative = 4.36320885522e-19
DICPCG:  Solving for p, Initial residual = 0.0354818161059, Final residual = 9.54324079386e-07, No Iterations 296
time step continuity errors : sum local = 3.83599866344e-18, global = -4.2579008206e-21, cumulative = 4.32062984701e-19
DICPCG:  Solving for p, Initial residual = 0.010605071029, Final residual = 9.99492661339e-07, No Iterations 278
time step continuity errors : sum local = 4.10424907928e-18, global = -2.50192898632e-20, cumulative = 4.07043694838e-19
DICPCG:  Solving for p, Initial residual = 0.00377150836899, Final residual = 9.38025458123e-07, No Iterations 257
time step continuity errors : sum local = 3.94116876108e-18, global = 7.43126249694e-20, cumulative = 4.81356319807e-19
DICPCG:  Solving for p, Initial residual = 0.00153287943791, Final residual = 9.92425865383e-07, No Iterations 186
time step continuity errors : sum local = 4.23178126017e-18, global = 8.19801898783e-20, cumulative = 5.63336509686e-19
DICPCG:  Solving for p, Initial residual = 0.000662246819644, Final residual = 9.7850542138e-07, No Iterations 149
time step continuity errors : sum local = 4.14987433482e-18, global = 9.74376464308e-20, cumulative = 6.60774156117e-19
DICPCG:  Solving for p, Initial residual = 0.000305548295191, Final residual = 9.87723338764e-07, No Iterations 133
time step continuity errors : sum local = 4.20063060393e-18, global = 7.84400314629e-20, cumulative = 7.39214187579e-19
DICPCG:  Solving for p, Initial residual = 0.000142876416725, Final residual = 9.98515784382e-07, No Iterations 113
time step continuity errors : sum local = 4.22982931417e-18, global = 9.6643590692e-20, cumulative = 8.35857778271e-19
DICPCG:  Solving for p, Initial residual = 6.92801481677e-05, Final residual = 9.83730418987e-07, No Iterations 67
time step continuity errors : sum local = 4.17654603749e-18, global = 8.61818703647e-20, cumulative = 9.22039648636e-19
DICPCG:  Solving for p, Initial residual = 3.3654599822e-05, Final residual = 9.8494655082e-07, No Iterations 36
time step continuity errors : sum local = 4.19759271506e-18, global = 9.19909687414e-20, cumulative = 1.01403061738e-18
DICPCG:  Solving for p, Initial residual = 1.69462965609e-05, Final residual = 9.30540237482e-07, No Iterations 25
time step continuity errors : sum local = 4.00346333188e-18, global = 9.20021135787e-20, cumulative = 1.10603273096e-18
DICPCG:  Solving for p, Initial residual = 8.68489632445e-06, Final residual = 9.37774764433e-07, No Iterations 16
time step continuity errors : sum local = 4.02701695936e-18, global = 8.78826437121e-20, cumulative = 1.19391537467e-18
DICPCG:  Solving for p, Initial residual = 4.73559399239e-06, Final residual = 7.95780582413e-07, No Iterations 11
time step continuity errors : sum local = 3.52916088899e-18, global = 9.1705733322e-20, cumulative = 1.28562110799e-18
DICPCG:  Solving for p, Initial residual = 2.6431037078e-06, Final residual = 9.06192069556e-07, No Iterations 5
time step continuity errors : sum local = 3.91751294634e-18, global = 9.32298769704e-20, cumulative = 1.37885098496e-18
DICPCG:  Solving for p, Initial residual = 1.76347299854e-06, Final residual = 9.17051304026e-07, No Iterations 3
time step continuity errors : sum local = 3.95751685725e-18, global = 8.23665811642e-20, cumulative = 1.46121756613e-18
DICPCG:  Solving for p, Initial residual = 1.30567274857e-06, Final residual = 7.49456513855e-07, No Iterations 2
time step continuity errors : sum local = 3.37348836258e-18, global = 8.29743719917e-20, cumulative = 1.54419193812e-18
DICPCG:  Solving for p, Initial residual = 9.48761964716e-07, Final residual = 9.48761964716e-07, No Iterations 0
time step continuity errors : sum local = 4.07058836891e-18, global = 8.32072407128e-20, cumulative = 1.62739917883e-18
DICPCG:  Solving for p, Initial residual = 9.57716651003e-07, Final residual = 9.57716651003e-07, No Iterations 0
time step continuity errors : sum local = 4.10207501039e-18, global = 8.32328972406e-20, cumulative = 1.71063207607e-18
DICPCG:  Solving for p, Initial residual = 9.5815735999e-07, Final residual = 9.5815735999e-07, No Iterations 0
time step continuity errors : sum local = 4.1036132305e-18, global = 8.32346777066e-20, cumulative = 1.79386675378e-18
ExecutionTime = 701.92 s  ClockTime = 702 s

Time = 0.000275

Courant Number mean: 0.00626193354549 max: 1.06210116297
DILUPBiCG:  Solving for Ux, Initial residual = 2.50028294395e-07, Final residual = 2.50028294395e-07, No Iterations 0
DILUPBiCG:  Solving for Uy, Initial residual = 0.0688469902183, Final residual = 9.93492826506e-08, No Iterations 3
DILUPBiCG:  Solving for Uz, Initial residual = 0.00417924250953, Final residual = 4.10884744706e-07, No Iterations 2
DICPCG:  Solving for p, Initial residual = 0.123225186664, Final residual = 9.72230741404e-07, No Iterations 531
time step continuity errors : sum local = 3.90042451923e-18, global = -3.68115975393e-20, cumulative = 1.75705515624e-18
DICPCG:  Solving for p, Initial residual = 0.125502003567, Final residual = 9.91291136756e-07, No Iterations 528
time step continuity errors : sum local = 4.05247376842e-18, global = 4.27801716852e-21, cumulative = 1.76133317341e-18
DICPCG:  Solving for p, Initial residual = 0.0333802908043, Final residual = 9.59980872276e-07, No Iterations 295
time step continuity errors : sum local = 3.98087699097e-18, global = 1.81349159138e-20, cumulative = 1.77946808932e-18
DICPCG:  Solving for p, Initial residual = 0.0099795578916, Final residual = 9.9982007828e-07, No Iterations 278
time step continuity errors : sum local = 4.23028834812e-18, global = -1.08689495423e-19, cumulative = 1.6707785939e-18
DICPCG:  Solving for p, Initial residual = 0.00354409125099, Final residual = 9.84737517057e-07, No Iterations 258
time step continuity errors : sum local = 4.21516509489e-18, global = -1.01910145726e-19, cumulative = 1.56886844817e-18
DICPCG:  Solving for p, Initial residual = 0.00144104410664, Final residual = 9.98204549039e-07, No Iterations 187
time step continuity errors : sum local = 4.36194014758e-18, global = -1.05139416468e-19, cumulative = 1.4637290317e-18
DICPCG:  Solving for p, Initial residual = 0.000622411545116, Final residual = 9.99340065247e-07, No Iterations 149
time step continuity errors : sum local = 4.33554572991e-18, global = -9.43630061062e-20, cumulative = 1.3693660256e-18
DICPCG:  Solving for p, Initial residual = 0.00028733575813, Final residual = 9.76964688246e-07, No Iterations 134
time step continuity errors : sum local = 4.26825763454e-18, global = -9.52031838144e-20, cumulative = 1.27416284178e-18
DICPCG:  Solving for p, Initial residual = 0.000134394397148, Final residual = 9.67623873015e-07, No Iterations 115
time step continuity errors : sum local = 4.22542625377e-18, global = -1.0235446445e-19, cumulative = 1.17180837733e-18
DICPCG:  Solving for p, Initial residual = 6.51884112482e-05, Final residual = 9.85358091454e-07, No Iterations 47
time step continuity errors : sum local = 4.30788323722e-18, global = -9.6674381412e-20, cumulative = 1.07513399592e-18
DICPCG:  Solving for p, Initial residual = 3.17006996626e-05, Final residual = 9.91428330559e-07, No Iterations 69
time step continuity errors : sum local = 4.33230131591e-18, global = -9.08102868152e-20, cumulative = 9.84323709105e-19
DICPCG:  Solving for p, Initial residual = 1.60258489482e-05, Final residual = 9.40431643163e-07, No Iterations 24
time step continuity errors : sum local = 4.15548318787e-18, global = -9.31612093327e-20, cumulative = 8.91162499773e-19
DICPCG:  Solving for p, Initial residual = 8.23722576819e-06, Final residual = 9.55236004796e-07, No Iterations 13
time step continuity errors : sum local = 4.21523487245e-18, global = -9.73269057964e-20, cumulative = 7.93835593976e-19
DICPCG:  Solving for p, Initial residual = 4.50821307606e-06, Final residual = 8.09979362958e-07, No Iterations 8
time step continuity errors : sum local = 3.68942355645e-18, global = -8.76931768047e-20, cumulative = 7.06142417172e-19
DICPCG:  Solving for p, Initial residual = 2.52107174521e-06, Final residual = 9.56696886172e-07, No Iterations 4
time step continuity errors : sum local = 4.23281216848e-18, global = -9.09808800242e-20, cumulative = 6.15161537147e-19
DICPCG:  Solving for p, Initial residual = 1.74273033169e-06, Final residual = 6.85546280133e-07, No Iterations 3
time step continuity errors : sum local = 3.2450557501e-18, global = -9.00422907663e-20, cumulative = 5.25119246381e-19
DICPCG:  Solving for p, Initial residual = 1.06644333051e-06, Final residual = 9.04829252155e-07, No Iterations 1
time step continuity errors : sum local = 4.05104308752e-18, global = -9.04601536673e-20, cumulative = 4.34659092714e-19
DICPCG:  Solving for p, Initial residual = 1.05584722283e-06, Final residual = 7.54770181274e-07, No Iterations 1
time step continuity errors : sum local = 3.50354752987e-18, global = -8.99703312747e-20, cumulative = 3.44688761439e-19
DICPCG:  Solving for p, Initial residual = 7.74896683733e-07, Final residual = 7.74896683733e-07, No Iterations 0
time step continuity errors : sum local = 3.57522800704e-18, global = -9.00741243729e-20, cumulative = 2.54614637066e-19
DICPCG:  Solving for p, Initial residual = 7.74869911006e-07, Final residual = 7.74869911006e-07, No Iterations 0
time step continuity errors : sum local = 3.57511776196e-18, global = -9.00508540868e-20, cumulative = 1.64563782979e-19
ExecutionTime = 764.14 s  ClockTime = 764 s

Time = 0.0003

Courant Number mean: 0.00626193195998 max: 1.06206651903
DILUPBiCG:  Solving for Ux, Initial residual = 2.43584887496e-07, Final residual = 2.43584887496e-07, No Iterations 0
DILUPBiCG:  Solving for Uy, Initial residual = 0.064443959418, Final residual = 9.46235977561e-08, No Iterations 3
[...]
time step continuity errors : sum local = 1.03075652076e-17, global = -1.72920861914e-19, cumulative = -3.66182196223e-16
DICPCG:  Solving for p, Initial residual = 1.28047678118e-05, Final residual = 9.03339730922e-07, No Iterations 22
time step continuity errors : sum local = 9.57502087973e-18, global = -1.7090397049e-19, cumulative = -3.66353100193e-16
DICPCG:  Solving for p, Initial residual = 6.7240916278e-06, Final residual = 7.83279880364e-07, No Iterations 15
time step continuity errors : sum local = 8.42887289498e-18, global = -1.76418661142e-19, cumulative = -3.66529518854e-16
DICPCG:  Solving for p, Initial residual = 3.70422563297e-06, Final residual = 8.8645182706e-07, No Iterations 8
time step continuity errors : sum local = 9.40680810896e-18, global = -1.75349416924e-19, cumulative = -3.66704868271e-16
DICPCG:  Solving for p, Initial residual = 2.28815077238e-06, Final residual = 7.83846998889e-07, No Iterations 4
time step continuity errors : sum local = 8.42936830279e-18, global = -1.74674861536e-19, cumulative = -3.66879543133e-16
DICPCG:  Solving for p, Initial residual = 1.43686883154e-06, Final residual = 8.63495671441e-07, No Iterations 2
time step continuity errors : sum local = 9.19077930784e-18, global = -1.73387399942e-19, cumulative = -3.67052930533e-16
DICPCG:  Solving for p, Initial residual = 1.20145512758e-06, Final residual = 9.48502479105e-07, No Iterations 1
time step continuity errors : sum local = 1.00020580391e-17, global = -1.73023799056e-19, cumulative = -3.67225954332e-16
DICPCG:  Solving for p, Initial residual = 1.0307950235e-06, Final residual = 5.74891782075e-07, No Iterations 1
time step continuity errors : sum local = 6.43694817402e-18, global = -1.72864382691e-19, cumulative = -3.67398818715e-16
DICPCG:  Solving for p, Initial residual = 5.50432615954e-07, Final residual = 5.50432615954e-07, No Iterations 0
time step continuity errors : sum local = 6.20340084657e-18, global = -1.72896625967e-19, cumulative = -3.67571715341e-16
DICPCG:  Solving for p, Initial residual = 5.49534726426e-07, Final residual = 5.49534726426e-07, No Iterations 0
time step continuity errors : sum local = 6.19481186537e-18, global = -1.72878246961e-19, cumulative = -3.67744593588e-16
DICPCG:  Solving for p, Initial residual = 5.49433299407e-07, Final residual = 5.49433299407e-07, No Iterations 0
time step continuity errors : sum local = 6.19384320376e-18, global = -1.72877133883e-19, cumulative = -3.67917470721e-16
DICPCG:  Solving for p, Initial residual = 5.49406505254e-07, Final residual = 5.49406505254e-07, No Iterations 0
time step continuity errors : sum local = 6.1935894135e-18, global = -1.72871463086e-19, cumulative = -3.68090342184e-16
ExecutionTime = 11156.73 s  ClockTime = 11157 s

Time = 0.004975

Courant Number mean: 0.00626182563447 max: 1.06106177475
DILUPBiCG:  Solving for Ux, Initial residual = 5.78492163386e-08, Final residual = 5.78492163386e-08, No Iterations 0
DILUPBiCG:  Solving for Uy, Initial residual = 0.00274362054161, Final residual = 4.02124573973e-07, No Iterations 2
DILUPBiCG:  Solving for Uz, Initial residual = 4.57765106792e-05, Final residual = 8.50269091925e-07, No Iterations 1
DICPCG:  Solving for p, Initial residual = 0.0263597928771, Final residual = 9.72605128881e-07, No Iterations 481
time step continuity errors : sum local = 9.62027555714e-18, global = -1.93587054398e-19, cumulative = -3.68283929239e-16
DICPCG:  Solving for p, Initial residual = 0.0266985276273, Final residual = 9.80118032362e-07, No Iterations 480
time step continuity errors : sum local = 9.71254072842e-18, global = -2.21265755488e-19, cumulative = -3.68505194994e-16
DICPCG:  Solving for p, Initial residual = 0.00524269733182, Final residual = 9.35301102819e-07, No Iterations 275
time step continuity errors : sum local = 9.70599906217e-18, global = -1.44178126953e-19, cumulative = -3.68649373121e-16
DICPCG:  Solving for p, Initial residual = 0.00154865378217, Final residual = 9.92406607336e-07, No Iterations 223
time step continuity errors : sum local = 1.0454626447e-17, global = -1.43805318148e-19, cumulative = -3.68793178439e-16
DICPCG:  Solving for p, Initial residual = 0.000560522089886, Final residual = 9.74794299227e-07, No Iterations 157
time step continuity errors : sum local = 1.02765138746e-17, global = -1.07999643517e-19, cumulative = -3.68901178083e-16
DICPCG:  Solving for p, Initial residual = 0.000235655936681, Final residual = 9.7683214857e-07, No Iterations 136
time step continuity errors : sum local = 1.02855044925e-17, global = -1.16491818232e-19, cumulative = -3.69017669901e-16
DICPCG:  Solving for p, Initial residual = 0.000105316977678, Final residual = 9.77477814388e-07, No Iterations 109
time step continuity errors : sum local = 1.02916889317e-17, global = -1.08932193356e-19, cumulative = -3.69126602095e-16
DICPCG:  Solving for p, Initial residual = 5.03507996821e-05, Final residual = 9.7090709131e-07, No Iterations 49
time step continuity errors : sum local = 1.02009413342e-17, global = -1.03556878182e-19, cumulative = -3.69230158973e-16
DICPCG:  Solving for p, Initial residual = 2.46575764704e-05, Final residual = 9.68845184222e-07, No Iterations 36
time step continuity errors : sum local = 1.01716114482e-17, global = -1.02717863245e-19, cumulative = -3.69332876836e-16
DICPCG:  Solving for p, Initial residual = 1.27064692829e-05, Final residual = 8.84397721851e-07, No Iterations 22
time step continuity errors : sum local = 9.35681040328e-18, global = -1.01789228373e-19, cumulative = -3.69434666064e-16
DICPCG:  Solving for p, Initial residual = 6.65699147965e-06, Final residual = 7.43562466139e-07, No Iterations 15
time step continuity errors : sum local = 8.00954801057e-18, global = -1.07301096146e-19, cumulative = -3.69541967161e-16
DICPCG:  Solving for p, Initial residual = 3.64009363809e-06, Final residual = 8.59715088487e-07, No Iterations 8
time step continuity errors : sum local = 9.11343472789e-18, global = -1.07687439177e-19, cumulative = -3.696496546e-16
DICPCG:  Solving for p, Initial residual = 2.24859378683e-06, Final residual = 7.8987746792e-07, No Iterations 4
time step continuity errors : sum local = 8.4485265624e-18, global = -1.0683955766e-19, cumulative = -3.69756494157e-16
DICPCG:  Solving for p, Initial residual = 1.4372066706e-06, Final residual = 9.05640199508e-07, No Iterations 2
time step continuity errors : sum local = 9.55399683877e-18, global = -1.05544777538e-19, cumulative = -3.69862038935e-16
DICPCG:  Solving for p, Initial residual = 1.24005285876e-06, Final residual = 5.53191132175e-07, No Iterations 2
time step continuity errors : sum local = 6.19240784493e-18, global = -1.05113458665e-19, cumulative = -3.69967152394e-16
DICPCG:  Solving for p, Initial residual = 7.23656196095e-07, Final residual = 7.23656196095e-07, No Iterations 0
time step continuity errors : sum local = 7.81681286641e-18, global = -1.05111608784e-19, cumulative = -3.70072264002e-16
DICPCG:  Solving for p, Initial residual = 7.34029746248e-07, Final residual = 7.34029746248e-07, No Iterations 0
time step continuity errors : sum local = 7.91572007898e-18, global = -1.05097149289e-19, cumulative = -3.70177361152e-16
DICPCG:  Solving for p, Initial residual = 7.35378335681e-07, Final residual = 7.35378335681e-07, No Iterations 0
time step continuity errors : sum local = 7.92858689734e-18, global = -1.0508547567e-19, cumulative = -3.70282446627e-16
DICPCG:  Solving for p, Initial residual = 7.35549819784e-07, Final residual = 7.35549819784e-07, No Iterations 0
time step continuity errors : sum local = 7.93023698745e-18, global = -1.05080250002e-19, cumulative = -3.70387526877e-16
DICPCG:  Solving for p, Initial residual = 7.35580497455e-07, Final residual = 7.35580497455e-07, No Iterations 0
time step continuity errors : sum local = 7.93052005339e-18, global = -1.05086116449e-19, cumulative = -3.70492612994e-16
ExecutionTime = 11206.08 s  ClockTime = 11207 s

Time = 0.005

Courant Number mean: 0.00626182532178 max: 1.06106101332
DILUPBiCG:  Solving for Ux, Initial residual = 5.76872080952e-08, Final residual = 5.76872080952e-08, No Iterations 0
DILUPBiCG:  Solving for Uy, Initial residual = 0.00271447230108, Final residual = 3.67085162993e-07, No Iterations 2
DILUPBiCG:  Solving for Uz, Initial residual = 4.53244254537e-05, Final residual = 8.36631757498e-07, No Iterations 1
DICPCG:  Solving for p, Initial residual = 0.0262642849632, Final residual = 9.83179942571e-07, No Iterations 478
time step continuity errors : sum local = 9.68248435993e-18, global = -1.50125716023e-19, cumulative = -3.7064273871e-16
DICPCG:  Solving for p, Initial residual = 0.0266139915376, Final residual = 9.62379918881e-07, No Iterations 480
time step continuity errors : sum local = 9.51277682959e-18, global = -1.90901333898e-19, cumulative = -3.70833640044e-16
DICPCG:  Solving for p, Initial residual = 0.00522482936032, Final residual = 9.28577453556e-07, No Iterations 275
time step continuity errors : sum local = 9.60210667132e-18, global = -1.6806654406e-19, cumulative = -3.71001706588e-16
DICPCG:  Solving for p, Initial residual = 0.00154374787058, Final residual = 9.81364012011e-07, No Iterations 223
time step continuity errors : sum local = 1.03060470264e-17, global = -1.31217944284e-19, cumulative = -3.71132924532e-16
DICPCG:  Solving for p, Initial residual = 0.000557993200582, Final residual = 9.72313303239e-07, No Iterations 157
time step continuity errors : sum local = 1.02010765745e-17, global = -1.31895225228e-19, cumulative = -3.71264819757e-16
DICPCG:  Solving for p, Initial residual = 0.000234588363113, Final residual = 9.77496547039e-07, No Iterations 136
time step continuity errors : sum local = 1.02404794902e-17, global = -1.32230617359e-19, cumulative = -3.71397050375e-16
DICPCG:  Solving for p, Initial residual = 0.000104751886382, Final residual = 9.84499906564e-07, No Iterations 109
time step continuity errors : sum local = 1.03055522142e-17, global = -1.38011050766e-19, cumulative = -3.71535061425e-16
DICPCG:  Solving for p, Initial residual = 5.01018052506e-05, Final residual = 9.85365390252e-07, No Iterations 48
time step continuity errors : sum local = 1.02870610245e-17, global = -1.40772990056e-19, cumulative = -3.71675834415e-16
DICPCG:  Solving for p, Initial residual = 2.45302090635e-05, Final residual = 9.47231836091e-07, No Iterations 35
time step continuity errors : sum local = 9.9099819602e-18, global = -1.36785154354e-19, cumulative = -3.7181261957e-16
DICPCG:  Solving for p, Initial residual = 1.26057274225e-05, Final residual = 9.84702757307e-07, No Iterations 22
time step continuity errors : sum local = 1.02581801976e-17, global = -1.35732412247e-19, cumulative = -3.71948351982e-16
DICPCG:  Solving for p, Initial residual = 6.71214327081e-06, Final residual = 7.49675419461e-07, No Iterations 15
time step continuity errors : sum local = 8.01030204497e-18, global = -1.30102518289e-19, cumulative = -3.720784545e-16
DICPCG:  Solving for p, Initial residual = 3.62025910878e-06, Final residual = 8.87786206051e-07, No Iterations 8
time step continuity errors : sum local = 9.32330316192e-18, global = -1.30354079456e-19, cumulative = -3.7220880858e-16
DICPCG:  Solving for p, Initial residual = 2.26584186835e-06, Final residual = 7.91665345943e-07, No Iterations 4
time step continuity errors : sum local = 8.40693401365e-18, global = -1.41115686964e-19, cumulative = -3.72349924267e-16
DICPCG:  Solving for p, Initial residual = 1.43337057152e-06, Final residual = 8.77294826546e-07, No Iterations 2
time step continuity errors : sum local = 9.22537889039e-18, global = -1.39229669806e-19, cumulative = -3.72489153937e-16
DICPCG:  Solving for p, Initial residual = 1.20897874843e-06, Final residual = 9.59970472885e-07, No Iterations 1
time step continuity errors : sum local = 1.00162756877e-17, global = -1.39744838381e-19, cumulative = -3.72628898775e-16
DICPCG:  Solving for p, Initial residual = 1.03979080502e-06, Final residual = 5.76063580709e-07, No Iterations 1
time step continuity errors : sum local = 6.35069935781e-18, global = -1.39705153068e-19, cumulative = -3.72768603928e-16
DICPCG:  Solving for p, Initial residual = 5.52158200336e-07, Final residual = 5.52158200336e-07, No Iterations 0
time step continuity errors : sum local = 6.12220647168e-18, global = -1.39550062122e-19, cumulative = -3.7290815399e-16
DICPCG:  Solving for p, Initial residual = 5.51271381567e-07, Final residual = 5.51271381567e-07, No Iterations 0
time step continuity errors : sum local = 6.11376712509e-18, global = -1.39559304113e-19, cumulative = -3.73047713294e-16
DICPCG:  Solving for p, Initial residual = 5.51171817463e-07, Final residual = 5.51171817463e-07, No Iterations 0
time step continuity errors : sum local = 6.11280354577e-18, global = -1.39555474373e-19, cumulative = -3.73187268769e-16
DICPCG:  Solving for p, Initial residual = 5.51144481538e-07, Final residual = 5.51144481538e-07, No Iterations 0
time step continuity errors : sum local = 6.11254536375e-18, global = -1.39558080708e-19, cumulative = -3.73326826849e-16
ExecutionTime = 11256.56 s  ClockTime = 11257 s

End

Finalising parallel run
/*---------------------------------------------------------------------------*\
| =========                 |                                                 |
| \\      /  F ield         | OpenFOAM: The Open Source CFD Toolbox           |
|  \\    /   O peration     | Version:  2.2.x                                 |
|   \\  /    A nd           | Web:      www.OpenFOAM.org                      |
|    \\/     M anipulation  |                                                 |
\*---------------------------------------------------------------------------*/
Build  : 2.2.x-61b850bc107b
Exec   : reconstructPar
Date   : Jan 16 2015
Time   : 07:37:46
Host   : "uc1n497"
PID    : 91275
Case   : /pfs/work2/workspace/scratch/st_lrt70667-test-0/workdir
nProcs : 1
sigFpe : Enabling floating point exception trapping (FOAM_SIGFPE).
fileModificationChecking : Monitoring run-time modified files using timeStampMaster
allowSystemOperations : Disallowing user-supplied system call operations

// * * * * * * * * * * * * * * * * * * * * * * * * * * * * * * * * * * * * * //
Create time



Reconstructing fields for mesh region0

Time = 0.00405

Reconstructing FV fields

    Reconstructing volScalarFields

        p

    Reconstructing volVectorFields

        U
        U_0

    Reconstructing surfaceScalarFields

        phi
        phi_0

Reconstructing point fields

No point fields

No lagrangian fields

Time = 0.0041

Reconstructing FV fields

    Reconstructing volScalarFields

        p

    Reconstructing volVectorFields

        U
        U_0

    Reconstructing surfaceScalarFields

        phi
        phi_0

Reconstructing point fields

No point fields

No lagrangian fields

Time = 0.00415

Reconstructing FV fields

    Reconstructing volScalarFields

        p

    Reconstructing volVectorFields

        U
        U_0

    Reconstructing surfaceScalarFields

        phi
        phi_0

Reconstructing point fields

No point fields

No lagrangian fields

Time = 0.0042

Reconstructing FV fields

    Reconstructing volScalarFields

        p

    Reconstructing volVectorFields

        U
        U_0

    Reconstructing surfaceScalarFields

        phi
        phi_0

Reconstructing point fields

No point fields

No lagrangian fields

Time = 0.00425

Reconstructing FV fields

    Reconstructing volScalarFields

        p

    Reconstructing volVectorFields

        U
        U_0

    Reconstructing surfaceScalarFields

        phi
        phi_0

Reconstructing point fields

No point fields

No lagrangian fields

Time = 0.0043

Reconstructing FV fields

    Reconstructing volScalarFields

        p

    Reconstructing volVectorFields

        U
        U_0

    Reconstructing surfaceScalarFields

        phi
        phi_0

Reconstructing point fields

No point fields

No lagrangian fields

Time = 0.00435

Reconstructing FV fields

    Reconstructing volScalarFields

        p

    Reconstructing volVectorFields

        U
        U_0

    Reconstructing surfaceScalarFields

        phi
        phi_0

Reconstructing point fields

No point fields

No lagrangian fields

Time = 0.0044

Reconstructing FV fields

    Reconstructing volScalarFields

        p

    Reconstructing volVectorFields

        U
        U_0

    Reconstructing surfaceScalarFields

        phi
        phi_0

Reconstructing point fields

No point fields

No lagrangian fields

Time = 0.00445

Reconstructing FV fields

    Reconstructing volScalarFields

        p

    Reconstructing volVectorFields

        U
        U_0

    Reconstructing surfaceScalarFields

        phi
        phi_0

Reconstructing point fields

No point fields

No lagrangian fields

Time = 0.0045

Reconstructing FV fields

    Reconstructing volScalarFields

        p

    Reconstructing volVectorFields

        U
        U_0

    Reconstructing surfaceScalarFields

        phi
        phi_0

Reconstructing point fields

No point fields

No lagrangian fields

Time = 0.00455

Reconstructing FV fields

    Reconstructing volScalarFields

        p

    Reconstructing volVectorFields

        U
        U_0

    Reconstructing surfaceScalarFields

        phi
        phi_0

Reconstructing point fields

No point fields

No lagrangian fields

Time = 0.0046

Reconstructing FV fields

    Reconstructing volScalarFields

        p

    Reconstructing volVectorFields

        U
        U_0

    Reconstructing surfaceScalarFields

        phi
        phi_0

Reconstructing point fields

No point fields

No lagrangian fields

Time = 0.00465

Reconstructing FV fields

    Reconstructing volScalarFields

        p

    Reconstructing volVectorFields

        U
        U_0

    Reconstructing surfaceScalarFields

        phi
        phi_0

Reconstructing point fields

No point fields

No lagrangian fields

Time = 0.0047

Reconstructing FV fields

    Reconstructing volScalarFields

        p

    Reconstructing volVectorFields

        U
        U_0

    Reconstructing surfaceScalarFields

        phi
        phi_0

Reconstructing point fields

No point fields

No lagrangian fields

Time = 0.00475

Reconstructing FV fields

    Reconstructing volScalarFields

        p

    Reconstructing volVectorFields

        U
        U_0

    Reconstructing surfaceScalarFields

        phi
        phi_0

Reconstructing point fields

No point fields

No lagrangian fields

Time = 0.0048

Reconstructing FV fields

    Reconstructing volScalarFields

        p

    Reconstructing volVectorFields

        U
        U_0

    Reconstructing surfaceScalarFields

        phi
        phi_0

Reconstructing point fields

No point fields

No lagrangian fields

Time = 0.00485

Reconstructing FV fields

    Reconstructing volScalarFields

        p

    Reconstructing volVectorFields

        U
        U_0

    Reconstructing surfaceScalarFields

        phi
        phi_0

Reconstructing point fields

No point fields

No lagrangian fields

Time = 0.0049

Reconstructing FV fields

    Reconstructing volScalarFields

        p

    Reconstructing volVectorFields

        U
        U_0

    Reconstructing surfaceScalarFields

        phi
        phi_0

Reconstructing point fields

No point fields

No lagrangian fields

Time = 0.00495

Reconstructing FV fields

    Reconstructing volScalarFields

        p

    Reconstructing volVectorFields

        U
        U_0

    Reconstructing surfaceScalarFields

        phi
        phi_0

Reconstructing point fields

No point fields

No lagrangian fields

Time = 0.005

Reconstructing FV fields

    Reconstructing volScalarFields

        p

    Reconstructing volVectorFields

        U
        U_0

    Reconstructing surfaceScalarFields

        phi
        phi_0

Reconstructing point fields

No point fields

No lagrangian fields

End.

